@<TRIPOS>MOLECULE
dna.pdb
 1638 1836 0 0 0
SMALL
GASTEIGER

@<TRIPOS>ATOM
      1  O5'       22.1020   19.2920   25.0230 O.3     1  DA1        -0.2176
      2  C5'       22.0460   20.2760   26.0350 C.3     1  DA1         0.2140
      3  C4'       23.2170   20.0100   26.9520 C.3     1  DA1         0.1776
      4  O4'       23.0830   18.6550   27.4810 O.3     1  DA1        -0.3326
      5  C3'       24.5810   19.9770   26.2730 C.3     1  DA1         0.1559
      6  O3'       25.1440   21.2860   26.0790 O.3     1  DA1        -0.3138
      7  C2'       25.3880   19.1860   27.2960 C.3     1  DA1         0.0865
      8  C1'       24.3740   18.1610   27.8340 C.3     1  DA1         0.2094
      9  N9        24.4170   16.7690   27.2490 N.ar    1  DA1        -0.2714
     10  C8        23.6820   16.1940   26.2450 C.ar    1  DA1         0.1815
     11  N7        24.0260   14.9560   25.9810 N.ar    1  DA1        -0.2193
     12  C5        25.0580   14.7010   26.8700 C.ar    1  DA1         0.1518
     13  C6        25.8520   13.5630   27.0970 C.ar    1  DA1         0.1919
     14  N6        25.7210   12.4220   26.4160 N.pl3   1  DA1        -0.1054
     15  N1        26.7950   13.6390   28.0600 N.ar    1  DA1        -0.2040
     16  C2        26.9250   14.7820   28.7430 C.ar    1  DA1         0.2016
     17  N3        26.2400   15.9160   28.6220 N.ar    1  DA1        -0.2048
     18  C4        25.3110   15.8090   27.6570 C.ar    1  DA1         0.1691
     19  P         26.1740   21.8470   24.6530 P.3     2  DG2         0.2141
     20  OP1       27.1950   22.5340   25.4820 O.3     2  DG2        -0.4373
     21  OP2       25.4390   22.6130   23.6140 O.2     2  DG2        -0.5172
     22  O5'       26.8510   20.5950   23.9310 O.3     2  DG2        -0.3114
     23  C5'       27.4820   19.5650   24.6880 C.3     2  DG2         0.1811
     24  C4'       27.8740   18.4020   23.7980 C.3     2  DG2         0.1767
     25  O4'       26.7180   17.9350   23.0520 O.3     2  DG2        -0.3157
     26  C3'       28.8930   18.6530   22.6980 C.3     2  DG2         0.1581
     27  O3'       30.2150   18.6680   23.2220 O.3     2  DG2        -0.3138
     28  C2'       28.6750   17.4420   21.7950 C.3     2  DG2         0.1121
     29  C1'       27.1580   17.2720   21.8760 C.3     2  DG2         0.2836
     30  N9        26.4640   17.8230   20.7210 N.pl3   2  DG2        -0.1971
     31  C8        25.6500   18.9290   20.6640 C.3     2  DG2         0.1059
     32  N7        25.1660   19.1500   19.4720 N.4     2  DG2         0.4530
     33  C5        25.6860   18.1320   18.6950 C.3     2  DG2         0.1459
     34  C6        25.5180   17.8460   17.3160 C.2     2  DG2         0.3119
     35  O6        24.8470   18.4650   16.4810 O.2     2  DG2        -0.2550
     36  N1        26.2290   16.7130   16.9290 N.am    2  DG2         0.0093
     37  C2        27.0060   15.9500   17.7680 C.2     2  DG2         0.5241
     38  N2        27.6140   14.8940   17.2120 N.pl3   2  DG2         0.1572
     39  N3        27.1720   16.2040   19.0510 N.2     2  DG2         0.0241
     40  C4        26.4910   17.3000   19.4490 C.2     2  DG2         0.2971
     41  P         31.4280   19.1380   22.2910 P.3     3  DC3         0.2141
     42  OP1       32.5950   18.9780   23.1900 O.3     3  DC3        -0.4373
     43  OP2       31.0400   20.4840   21.8200 O.2     3  DC3        -0.5172
     44  O5'       31.6610   18.3140   20.9380 O.3     3  DC3        -0.3114
     45  C5'       32.4620   17.1400   20.9270 C.3     3  DC3         0.1811
     46  C4'       33.0470   16.8800   19.5600 C.3     3  DC3         0.1746
     47  O4'       32.0010   16.4590   18.6430 O.3     3  DC3        -0.3327
     48  C3'       33.6790   18.0810   18.8700 C.3     3  DC3         0.1558
     49  O3'       34.9990   18.3400   19.3160 O.3     3  DC3        -0.3138
     50  C2'       33.5950   17.7050   17.3940 C.3     3  DC3         0.0866
     51  C1'       32.2550   16.9700   17.3510 C.3     3  DC3         0.2106
     52  N1        31.0970   17.8290   17.0020 N.ar    3  DC3        -0.2556
     53  C2        31.1180   18.1390   15.6370 C.ar    3  DC3         0.3531
     54  O2        31.8080   17.4410   14.8750 O.2     3  DC3        -0.2443
     55  N3        30.3890   19.1890   15.1890 N.ar    3  DC3        -0.1739
     56  C4        29.6640   19.9110   16.0430 C.ar    3  DC3         0.1759
     57  N4        28.9610   20.9360   15.5550 N.pl3   3  DC3        -0.1070
     58  C5        29.6290   19.6130   17.4300 C.ar    3  DC3         0.0566
     59  C6        30.3510   18.5760   17.8680 C.ar    3  DC3         0.0849
     60  P         35.5090   20.1050   19.6420 P.3     4  DA4         0.2141
     61  OP1       36.7260   20.0550   20.5580 O.3     4  DA4        -0.4373
     62  OP2       34.5510   21.1600   20.0510 O.2     4  DA4        -0.5172
     63  O5'       35.7730   20.2030   18.0860 O.3     4  DA4        -0.3114
     64  C5'       37.1040   20.3020   17.5080 C.3     4  DA4         0.1811
     65  C4'       36.9200   20.3500   16.0090 C.3     4  DA4         0.1746
     66  O4'       35.6900   19.7400   15.6390 O.3     4  DA4        -0.3327
     67  C3'       36.8220   21.7620   15.4380 C.3     4  DA4         0.1558
     68  O3'       38.0910   22.4010   15.3010 O.3     4  DA4        -0.3138
     69  C2'       36.1160   21.4790   14.1030 C.3     4  DA4         0.0865
     70  C1'       35.1020   20.4630   14.5230 C.3     4  DA4         0.2094
     71  N9        33.8680   20.9680   14.9540 N.ar    4  DA4        -0.2714
     72  C8        33.3580   20.8990   16.2240 C.ar    4  DA4         0.1815
     73  N7        32.1450   21.3870   16.3330 N.ar    4  DA4        -0.2193
     74  C5        31.8380   21.8050   15.0480 C.ar    4  DA4         0.1518
     75  C6        30.6950   22.4100   14.4980 C.ar    4  DA4         0.1919
     76  N6        29.6030   22.7100   15.2060 N.pl3   4  DA4        -0.1054
     77  N1        30.7120   22.7000   13.1790 N.ar    4  DA4        -0.2040
     78  C2        31.8060   22.3980   12.4700 C.ar    4  DA4         0.2016
     79  N3        32.9390   21.8290   12.8740 N.ar    4  DA4        -0.2048
     80  C4        32.8900   21.5540   14.1880 C.ar    4  DA4         0.1691
     81  P         38.0370   23.7900   15.9580 P.3     5  DG5         0.2141
     82  OP1       39.4500   24.2680   15.9540 O.2     5  DG5        -0.5172
     83  OP2       37.4000   23.3860   17.2430 O.3     5  DG5        -0.4373
     84  O5'       37.1090   24.8890   15.2720 O.3     5  DG5        -0.3114
     85  C5'       37.5000   25.5090   14.0410 C.3     5  DG5         0.1811
     86  C4'       36.4690   26.5180   13.5970 C.3     5  DG5         0.1746
     87  O4'       35.2230   25.8530   13.2680 O.3     5  DG5        -0.3327
     88  C3'       36.0830   27.6000   14.5970 C.3     5  DG5         0.1558
     89  O3'       37.0050   28.6760   14.5760 O.3     5  DG5        -0.3138
     90  C2'       34.7130   28.0430   14.0980 C.3     5  DG5         0.0865
     91  C1'       34.1390   26.7350   13.5290 C.3     5  DG5         0.2094
     92  N9        33.2110   26.0930   14.4580 N.ar    5  DG5        -0.2713
     93  C8        33.4140   25.0100   15.2780 C.ar    5  DG5         0.1816
     94  N7        32.3980   24.7560   16.0580 N.ar    5  DG5        -0.2173
     95  C5        31.4670   25.7250   15.7340 C.ar    5  DG5         0.1748
     96  C6        30.1660   25.9640   16.2480 C.ar    5  DG5         0.3023
     97  O6        29.5620   25.3350   17.1250 O.2     5  DG5        -0.2633
     98  N1        29.5590   27.0590   15.6390 N.ar    5  DG5        -0.1709
     99  C2        30.1340   27.8290   14.6560 C.ar    5  DG5         0.2606
    100  N2        29.3920   28.8430   14.1900 N.pl3   5  DG5        -0.0859
    101  N3        31.3410   27.6200   14.1700 N.ar    5  DG5        -0.1918
    102  C4        31.9500   26.5620   14.7470 C.ar    5  DG5         0.1722
    103  P         37.1600   29.9000   16.0280 P.3     6  DC6         0.2141
    104  OP1       38.2740   30.4730   15.2380 O.2     6  DC6        -0.5172
    105  OP2       37.3320   29.6090   17.4690 O.3     6  DC6        -0.4373
    106  O5'       35.9010   30.8880   15.9710 O.3     6  DC6        -0.3114
    107  C5'       35.4410   31.3990   14.7230 C.3     6  DC6         0.1811
    108  C4'       34.2110   32.2580   14.8960 C.3     6  DC6         0.1746
    109  O4'       33.0300   31.4550   14.6190 O.3     6  DC6        -0.3327
    110  C3'       34.0510   32.8230   16.3040 C.3     6  DC6         0.1558
    111  O3'       33.7110   34.2080   16.3110 O.3     6  DC6        -0.3138
    112  C2'       32.9130   32.0100   16.9110 C.3     6  DC6         0.0866
    113  C1'       32.1380   31.4780   15.7140 C.3     6  DC6         0.2106
    114  N1        31.7960   30.1480   16.0450 N.ar    6  DC6        -0.2556
    115  C2        30.4550   29.9750   16.4060 C.ar    6  DC6         0.3531
    116  O2        29.6040   30.7480   15.9320 O.2     6  DC6        -0.2443
    117  N3        30.1250   28.9760   17.2590 N.ar    6  DC6        -0.1739
    118  C4        31.0720   28.1720   17.7440 C.ar    6  DC6         0.1759
    119  N4        30.6990   27.2020   18.5810 N.pl3   6  DC6        -0.1070
    120  C5        32.4360   28.3300   17.3900 C.ar    6  DC6         0.0566
    121  C6        32.7580   29.3180   16.5480 C.ar    6  DC6         0.0849
    122  P         34.1600   34.9840   17.6220 P.3     7  DA7         0.2141
    123  OP1       34.8400   36.2680   17.3370 O.2     7  DA7        -0.5172
    124  OP2       34.5460   34.1770   18.8040 O.3     7  DA7        -0.4373
    125  O5'       32.5840   35.2220   17.7830 O.3     7  DA7        -0.3114
    126  C5'       31.9960   35.4950   19.0500 C.3     7  DA7         0.1811
    127  C4'       30.7390   36.3190   18.9150 C.3     7  DA7         0.1746
    128  O4'       31.0480   37.5460   18.2060 O.3     7  DA7        -0.3327
    129  C3'       29.5950   35.6790   18.1380 C.3     7  DA7         0.1558
    130  O3'       28.7610   34.8810   18.9640 O.3     7  DA7        -0.3138
    131  C2'       28.8610   36.8810   17.5580 C.3     7  DA7         0.0865
    132  C1'       29.9950   37.8820   17.3320 C.3     7  DA7         0.2094
    133  N9        30.4240   37.8880   15.9830 N.ar    7  DA7        -0.2714
    134  C8        31.6720   37.4980   15.5700 C.ar    7  DA7         0.1815
    135  N7        31.9110   37.7450   14.3040 N.ar    7  DA7        -0.2193
    136  C5        30.7410   38.3360   13.8540 C.ar    7  DA7         0.1518
    137  C6        30.3540   38.8310   12.5960 C.ar    7  DA7         0.1919
    138  N6        31.1420   38.8090   11.5190 N.pl3   7  DA7        -0.1054
    139  N1        29.1150   39.3570   12.4840 N.ar    7  DA7        -0.2040
    140  C2        28.3270   39.3800   13.5650 C.ar    7  DA7         0.2016
    141  N3        28.5780   38.9460   14.7980 N.ar    7  DA7        -0.2048
    142  C4        29.8150   38.4290   14.8760 C.ar    7  DA7         0.1691
    143  P         28.0210   33.5950   18.5020 P.3     8  DC8         0.2141
    144  OP1       26.8210   33.2140   19.2980 O.3     8  DC8        -0.4373
    145  OP2       28.9250   32.5360   17.9830 O.2     8  DC8        -0.5172
    146  O5'       27.5180   34.4250   17.2450 O.3     8  DC8        -0.3114
    147  C5'       26.6290   35.5050   17.4260 C.3     8  DC8         0.1811
    148  C4'       25.9510   35.8300   16.1280 C.3     8  DC8         0.1746
    149  O4'       26.8390   36.5970   15.2800 O.3     8  DC8        -0.3327
    150  C3'       25.5060   34.6440   15.2900 C.3     8  DC8         0.1558
    151  O3'       24.2520   34.0830   15.7080 O.3     8  DC8        -0.3138
    152  C2'       25.4280   35.2590   13.8990 C.3     8  DC8         0.0866
    153  C1'       26.5690   36.2870   13.9320 C.3     8  DC8         0.2106
    154  N1        27.8720   35.7870   13.2330 N.ar    8  DC8        -0.2556
    155  C2        28.1180   36.0730   11.8850 C.ar    8  DC8         0.3531
    156  O2        27.2280   36.6290   11.2190 O.2     8  DC8        -0.2443
    157  N3        29.3150   35.7350   11.3470 N.ar    8  DC8        -0.1739
    158  C4        30.2400   35.1390   12.0990 C.ar    8  DC8         0.1759
    159  N4        31.4040   34.8250   11.5260 N.pl3   8  DC8        -0.1070
    160  C5        30.0100   34.8410   13.4670 C.ar    8  DC8         0.0566
    161  C6        28.8270   35.1760   13.9940 C.ar    8  DC8         0.0849
    162  P         23.9530   32.4060   15.5850 P.3     9  DA9         0.2141
    163  OP1       22.7120   31.7170   16.0470 O.2     9  DA9        -0.5172
    164  OP2       25.2430   32.1540   16.2820 O.3     9  DA9        -0.4373
    165  O5'       24.1470   32.0980   14.0260 O.3     9  DA9        -0.3114
    166  C5'       23.1350   32.4190   13.0680 C.3     9  DA9         0.1811
    167  C4'       23.7630   32.8980   11.7660 C.3     9  DA9         0.1746
    168  O4'       24.9750   33.6560   12.0490 O.3     9  DA9        -0.3327
    169  C3'       24.1910   31.8490   10.7450 C.3     9  DA9         0.1558
    170  O3'       23.0930   31.5150    9.8830 O.3     9  DA9        -0.3138
    171  C2'       25.2670   32.5870    9.9440 C.3     9  DA9         0.0865
    172  C1'       25.9100   33.4850   10.9990 C.3     9  DA9         0.2094
    173  N9        27.1150   32.8410   11.5420 N.ar    9  DA9        -0.2714
    174  C8        27.3010   32.4130   12.8310 C.ar    9  DA9         0.1815
    175  N7        28.5060   31.9520   13.0670 N.ar    9  DA9        -0.2193
    176  C5        29.1560   32.0840   11.8500 C.ar    9  DA9         0.1518
    177  C6        30.4640   31.7740   11.4370 C.ar    9  DA9         0.1919
    178  N6        31.3870   31.2440   12.2430 N.pl3   9  DA9        -0.1054
    179  N1        30.7930   32.0300   10.1530 N.ar    9  DA9        -0.2040
    180  C2        29.8670   32.5610    9.3460 C.ar    9  DA9         0.2016
    181  N3        28.6080   32.8970    9.6180 N.ar    9  DA9        -0.2048
    182  C4        28.3120   32.6300   10.9010 C.ar    9  DA9         0.1691
    183  P         23.0610   30.2280    9.3050 P.3    10  DG10        0.2141
    184  OP1       21.8730   30.2250    8.3990 O.2    10  DG10       -0.5172
    185  OP2       23.0030   29.5080   10.6060 O.3    10  DG10       -0.4373
    186  O5'       24.3740   29.7890    8.4950 O.3    10  DG10       -0.3114
    187  C5'       24.6310   30.2990    7.1900 C.3    10  DG10        0.1811
    188  C4'       25.9950   29.8690    6.6450 C.3    10  DG10        0.1746
    189  O4'       27.0770   30.4890    7.3840 O.3    10  DG10       -0.3327
    190  C3'       26.4130   28.4060    6.5670 C.3    10  DG10        0.1558
    191  O3'       25.8260   27.7150    5.4880 O.3    10  DG10       -0.3138
    192  C2'       27.9180   28.5180    6.3540 C.3    10  DG10        0.0865
    193  C1'       28.2560   29.7110    7.2390 C.3    10  DG10        0.2094
    194  N9        28.7790   29.3460    8.6140 N.ar   10  DG10       -0.2713
    195  C8        28.1980   29.4670    9.8530 C.ar   10  DG10        0.1816
    196  N7        28.8980   28.9160   10.8060 N.ar   10  DG10       -0.2173
    197  C5        30.0090   28.4010   10.1630 C.ar   10  DG10        0.1748
    198  C6        31.1240   27.6890   10.6740 C.ar   10  DG10        0.3023
    199  O6        31.3540   27.3640   11.8460 O.2    10  DG10       -0.2633
    200  N1        32.0280   27.3490    9.6720 N.ar   10  DG10       -0.1709
    201  C2        31.8760   27.6560    8.3410 C.ar   10  DG10        0.2606
    202  N2        32.8550   27.2440    7.5240 N.pl3  10  DG10       -0.0859
    203  N3        30.8450   28.3160    7.8510 N.ar   10  DG10       -0.1918
    204  C4        29.9540   28.6570    8.8070 C.ar   10  DG10        0.1722
    205  P         25.0360   26.4430    5.8040 P.3    11  DA11        0.2141
    206  OP1       24.1610   26.1740    4.6410 O.2    11  DA11       -0.5172
    207  OP2       24.6150   25.9840    7.1570 O.3    11  DA11       -0.4373
    208  O5'       26.4860   25.8530    5.5230 O.3    11  DA11       -0.3114
    209  C5'       27.0660   25.9200    4.2170 C.3    11  DA11        0.1811
    210  C4'       28.3880   25.1900    4.1980 C.3    11  DA11        0.1746
    211  O4'       29.3560   25.8880    5.0270 O.3    11  DA11       -0.3327
    212  C3'       28.3980   23.7770    4.7570 C.3    11  DA11        0.1558
    213  O3'       27.8850   22.8480    3.8110 O.3    11  DA11       -0.3138
    214  C2'       29.8830   23.5720    5.0270 C.3    11  DA11        0.0865
    215  C1'       30.2770   24.9500    5.5630 C.3    11  DA11        0.2094
    216  N9        30.2050   25.0100    7.0170 N.ar   11  DA11       -0.2714
    217  C8        29.1950   25.5390    7.7780 C.ar   11  DA11        0.1815
    218  N7        29.3820   25.4080    9.0700 N.ar   11  DA11       -0.2193
    219  C5        30.5960   24.7470    9.1640 C.ar   11  DA11        0.1518
    220  C6        31.3530   24.3120   10.2660 C.ar   11  DA11        0.1919
    221  N6        30.9790   24.4870   11.5350 N.pl3  11  DA11       -0.1054
    222  N1        32.5210   23.6830   10.0140 N.ar   11  DA11       -0.2040
    223  C2        32.8950   23.5080    8.7420 C.ar   11  DA11        0.2016
    224  N3        32.2710   23.8730    7.6240 N.ar   11  DA11       -0.2048
    225  C4        31.1140   24.4940    7.9080 C.ar   11  DA11        0.1691
    226  P         27.2900   21.3770    4.3210 P.3    12  DG12        0.2141
    227  OP1       26.6240   20.5730    3.2740 O.2    12  DG12       -0.5172
    228  OP2       26.5400   21.8300    5.5190 O.3    12  DG12       -0.4373
    229  O5'       28.5080   20.5350    4.9270 O.3    12  DG12       -0.3114
    230  C5'       29.6730   20.2530    4.1640 C.3    12  DG12        0.1811
    231  C4'       30.7800   19.7820    5.0670 C.3    12  DG12        0.1746
    232  O4'       31.0230   20.7950    6.0780 O.3    12  DG12       -0.3327
    233  C3'       30.4700   18.5330    5.8770 C.3    12  DG12        0.1558
    234  O3'       30.6520   17.3270    5.1520 O.3    12  DG12       -0.3138
    235  C2'       31.3890   18.6830    7.0850 C.3    12  DG12        0.0865
    236  C1'       31.3190   20.1910    7.3200 C.3    12  DG12        0.2094
    237  N9        30.2420   20.5090    8.3420 N.ar   12  DG12       -0.2713
    238  C8        29.0600   21.1820    8.1440 C.ar   12  DG12        0.1816
    239  N7        28.3870   21.3760    9.2450 N.ar   12  DG12       -0.2173
    240  C5        29.1680   20.8010   10.2300 C.ar   12  DG12        0.1748
    241  C6        28.9590   20.6950   11.6290 C.ar   12  DG12        0.3023
    242  O6        28.0020   21.1090   12.2950 O.2    12  DG12       -0.2633
    243  N1        30.0050   20.0300   12.2630 N.ar   12  DG12       -0.1709
    244  C2        31.1160   19.5280   11.6270 C.ar   12  DG12        0.2606
    245  N2        32.0190   18.9180   12.4070 N.pl3  12  DG12       -0.0859
    246  N3        31.3230   19.6180   10.3280 N.ar   12  DG12       -0.1918
    247  C4        30.3200   20.2590    9.6920 C.ar   12  DG12        0.1722
    248  P         29.7900   16.2600    5.4960 P.3    13  DG13        0.2141
    249  OP1       30.0250   15.1340    4.5530 O.2    13  DG13       -0.5172
    250  OP2       28.4310   16.8560    5.6340 O.3    13  DG13       -0.4373
    251  O5'       30.2750   15.8790    6.9760 O.3    13  DG13       -0.3114
    252  C5'       31.4970   15.2310    7.1880 C.3    13  DG13        0.1811
    253  C4'       31.7130   15.0330    8.6670 C.3    13  DG13        0.1746
    254  O4'       31.6420   16.2930    9.3570 O.3    13  DG13       -0.3327
    255  C3'       30.6630   14.2270    9.3920 C.3    13  DG13        0.1558
    256  O3'       30.7930   12.8960    8.9650 O.3    13  DG13       -0.3138
    257  C2'       31.0590   14.5820   10.8330 C.3    13  DG13        0.0865
    258  C1'       31.1720   16.0810   10.6750 C.3    13  DG13        0.2094
    259  N9        29.8330   16.7360   10.8180 N.ar   13  DG13       -0.2713
    260  C8        28.9940   17.2360    9.8510 C.ar   13  DG13        0.1816
    261  N7        27.8830   17.7210   10.3340 N.ar   13  DG13       -0.2173
    262  C5        27.9920   17.5340   11.7000 C.ar   13  DG13        0.1748
    263  C6        27.0950   17.8580   12.7500 C.ar   13  DG13        0.3023
    264  O6        25.9850   18.3980   12.6700 O.2    13  DG13       -0.2633
    265  N1        27.5980   17.4930   13.9950 N.ar   13  DG13       -0.1709
    266  C2        28.8150   16.8890   14.2030 C.ar   13  DG13        0.2606
    267  N2        29.1280   16.6130   15.4770 N.pl3  13  DG13       -0.0859
    268  N3        29.6580   16.5810   13.2380 N.ar   13  DG13       -0.1918
    269  C4        29.1910   16.9260   12.0190 C.ar   13  DG13        0.1722
    270  P         30.1380   11.6930    9.6040 P.3    14  DT14        0.2141
    271  OP1       31.2600   10.7340    9.4090 O.3    14  DT14       -0.4373
    272  OP2       28.9140   11.5550    8.7810 O.2    14  DT14       -0.5172
    273  O5'       29.7020   11.6560   11.1330 O.3    14  DT14       -0.3114
    274  C5'       30.6900   11.6470   12.1780 C.3    14  DT14        0.1811
    275  C4'       30.0340   11.8910   13.5090 C.3    14  DT14        0.1746
    276  O4'       29.6270   13.2810   13.6120 O.3    14  DT14       -0.3327
    277  C3'       28.7610   11.0920   13.7170 C.3    14  DT14        0.1558
    278  O3'       29.0580    9.7940   14.2060 O.3    14  DT14       -0.3138
    279  C2'       28.0040   11.9580   14.7140 C.3    14  DT14        0.0866
    280  C1'       28.3330   13.3590   14.1900 C.3    14  DT14        0.2106
    281  N1        27.3430   13.8280   13.1010 N.ar   14  DT14       -0.2559
    282  C2        26.0440   14.1040   13.4820 C.ar   14  DT14        0.3545
    283  O2        25.6300   13.9190   14.6130 O.2    14  DT14       -0.2443
    284  N3        25.2410   14.6070   12.4870 N.ar   14  DT14       -0.1533
    285  C4        25.5990   14.8570   11.1790 C.ar   14  DT14        0.2804
    286  O4        24.7650   15.3110   10.4000 O.2    14  DT14       -0.2654
    287  C5        26.9630   14.5430   10.8610 C.ar   14  DT14        0.0534
    288  C6        27.7660   14.0530   11.8090 C.ar   14  DT14        0.0824
    289  C7        27.4490   14.7790    9.4620 C.3    14  DT14        0.0377
    290  P         28.3830    8.7120   13.6160 P.3    15  DC15        0.2141
    291  OP1       29.3140    7.6180   13.9730 O.3    15  DC15       -0.4373
    292  OP2       28.1320    9.0540   12.1970 O.2    15  DC15       -0.5172
    293  O5'       26.9670    8.4610   14.3100 O.3    15  DC15       -0.3114
    294  C5'       26.9000    7.9850   15.6430 C.3    15  DC15        0.1811
    295  C4'       25.6800    8.5690   16.3210 C.3    15  DC15        0.1746
    296  O4'       25.4640    9.9060   15.8350 O.3    15  DC15       -0.3327
    297  C3'       24.3650    7.9220   15.9510 C.3    15  DC15        0.1558
    298  O3'       24.1980    6.7160   16.6480 O.3    15  DC15       -0.3138
    299  C2'       23.3550    8.9800   16.3700 C.3    15  DC15        0.0866
    300  C1'       24.0860   10.2200   15.8800 C.3    15  DC15        0.2106
    301  N1        23.5530   10.6770   14.5110 N.ar   15  DC15       -0.2556
    302  C2        22.2940   11.2630   14.3400 C.ar   15  DC15        0.3531
    303  O2        21.5180   11.3090   15.3100 O.2    15  DC15       -0.2443
    304  N3        21.9580   11.7610   13.1260 N.ar   15  DC15       -0.1739
    305  C4        22.8220   11.6880   12.1130 C.ar   15  DC15        0.1759
    306  N4        22.4470   12.1920   10.9340 N.pl3  15  DC15       -0.1070
    307  C5        24.1030   11.0980   12.2660 C.ar   15  DC15        0.0566
    308  C6        24.4300   10.6080   13.4670 C.ar   15  DC15        0.0849
    309  P         23.7100    5.5400   15.7440 P.3    16  DA16        0.2141
    310  OP1       24.3070    4.3520   15.0880 O.3    16  DA16       -0.4373
    311  OP2       22.8530    6.4640   14.9660 O.2    16  DA16       -0.5172
    312  O5'       22.7880    5.1140   16.9790 O.3    16  DA16       -0.3114
    313  C5'       21.4020    4.9520   16.7220 C.3    16  DA16        0.1811
    314  C4'       20.5560    5.1480   17.9540 C.3    16  DA16        0.1746
    315  O4'       20.6340    6.5250   18.4070 O.3    16  DA16       -0.3327
    316  C3'       19.0690    4.8830   17.7620 C.3    16  DA16        0.1558
    317  O3'       18.7640    3.5000   17.8540 O.3    16  DA16       -0.3138
    318  C2'       18.4380    5.7300   18.8620 C.3    16  DA16        0.0865
    319  C1'       19.3900    6.9280   18.9330 C.3    16  DA16        0.2094
    320  N9        18.9300    8.0310   18.2010 N.ar   16  DA16       -0.2714
    321  C8        19.5010    8.5930   17.0900 C.ar   16  DA16        0.1815
    322  N7        18.7790    9.5450   16.5470 N.ar   16  DA16       -0.2193
    323  C5        17.6560    9.6120   17.3570 C.ar   16  DA16        0.1518
    324  C6        16.5080   10.4230   17.3170 C.ar   16  DA16        0.1919
    325  N6        16.2970   11.3600   16.3900 N.pl3  16  DA16       -0.1054
    326  N1        15.5750   10.2340   18.2740 N.ar   16  DA16       -0.2040
    327  C2        15.7880    9.2960   19.2030 C.ar   16  DA16        0.2016
    328  N3        16.8250    8.4740   19.3450 N.ar   16  DA16       -0.2048
    329  C4        17.7340    8.6850   18.3790 C.ar   16  DA16        0.1691
    330  P         17.5690    2.7190   17.0150 P.3    17  DG17        0.2141
    331  OP1       17.4990    1.3080   17.5020 O.3    17  DG17       -0.4373
    332  OP2       17.6360    2.9920   15.5760 O.2    17  DG17       -0.5172
    333  O5'       16.3890    3.5800   17.6670 O.3    17  DG17       -0.3114
    334  C5'       16.1860    3.5640   19.0870 C.3    17  DG17        0.1811
    335  C4'       14.9750    4.4170   19.4240 C.3    17  DG17        0.1746
    336  O4'       15.4120    5.8080   19.4670 O.3    17  DG17       -0.3327
    337  C3'       13.8490    4.4040   18.3860 C.3    17  DG17        0.1558
    338  O3'       12.8870    3.3660   18.5850 O.3    17  DG17       -0.3138
    339  C2'       13.2210    5.7650   18.6100 C.3    17  DG17        0.0865
    340  C1'       14.4510    6.6410   18.8520 C.3    17  DG17        0.2094
    341  N9        14.9190    7.1680   17.5870 N.ar   17  DG17       -0.2713
    342  C8        15.9810    6.7400   16.8290 C.ar   17  DG17        0.1816
    343  N7        16.0820    7.3610   15.6860 N.ar   17  DG17       -0.2173
    344  C5        15.0270    8.2550   15.6870 C.ar   17  DG17        0.1748
    345  C6        14.6180    9.2020   14.7130 C.ar   17  DG17        0.3023
    346  O6        15.1340    9.4420   13.6140 O.2    17  DG17       -0.2633
    347  N1        13.4890    9.9090   15.1160 N.ar   17  DG17       -0.1709
    348  C2        12.8340    9.7260   16.3100 C.ar   17  DG17        0.2606
    349  N2        11.7630   10.5030   16.5220 N.pl3  17  DG17       -0.0859
    350  N3        13.2020    8.8500   17.2250 N.ar   17  DG17       -0.1918
    351  C4        14.2960    8.1520   16.8540 C.ar   17  DG17        0.1722
    352  P         12.2730    2.3980   17.2870 P.3    18  DA18        0.2141
    353  OP1       11.6540    1.1860   17.8710 O.3    18  DA18       -0.4373
    354  OP2       13.1580    2.3080   16.1030 O.2    18  DA18       -0.5172
    355  O5'       11.0970    3.3730   16.8210 O.3    18  DA18       -0.3114
    356  C5'       10.1610    3.8490   17.7680 C.3    18  DA18        0.1811
    357  C4'        9.5000    5.1010   17.2610 C.3    18  DA18        0.1746
    358  O4'       10.4680    6.1770   17.1480 O.3    18  DA18       -0.3327
    359  C3'        8.9320    5.0090   15.8600 C.3    18  DA18        0.1558
    360  O3'        7.7180    4.2870   15.7980 O.3    18  DA18       -0.3138
    361  C2'        8.8110    6.4760   15.4720 C.3    18  DA18        0.0865
    362  C1'       10.0950    7.0320   16.0860 C.3    18  DA18        0.2094
    363  N9        11.0530    7.0300   15.0170 N.ar   18  DA18       -0.2714
    364  C8        12.0470    6.0870   14.9820 C.ar   18  DA18        0.1815
    365  N7        13.0140    6.3690   14.1420 N.ar   18  DA18       -0.2193
    366  C5        12.6280    7.5790   13.5860 C.ar   18  DA18        0.1518
    367  C6        13.2260    8.4120   12.6240 C.ar   18  DA18        0.1919
    368  N6        14.3890    8.1370   12.0290 N.pl3  18  DA18       -0.1054
    369  N1        12.5800    9.5490   12.2910 N.ar   18  DA18       -0.2040
    370  C2        11.4150    9.8250   12.8890 C.ar   18  DA18        0.2016
    371  N3        10.7550    9.1220   13.8060 N.ar   18  DA18       -0.2048
    372  C4        11.4220    7.9980   14.1150 C.ar   18  DA18        0.1691
    373  P          7.6910    3.3320   14.7550 P.3    19  DT19        0.2141
    374  OP1        6.4490    2.6050   15.1620 O.3    19  DT19       -0.4373
    375  OP2        8.9240    2.6220   14.4170 O.2    19  DT19       -0.5172
    376  O5'        7.1900    4.3050   13.5700 O.3    19  DT19       -0.3114
    377  C5'        5.9660    5.0620   13.7340 C.3    19  DT19        0.1811
    378  C4'        5.8310    6.1060   12.6410 C.3    19  DT19        0.1746
    379  O4'        6.9940    6.9920   12.6370 O.3    19  DT19       -0.3327
    380  C3'        5.8090    5.4530   11.2520 C.3    19  DT19        0.1558
    381  O3'        5.0220    6.3770   10.4390 O.3    19  DT19       -0.3138
    382  C2'        7.2850    5.4930   10.8000 C.3    19  DT19        0.0866
    383  C1'        7.6700    6.8110   11.4180 C.3    19  DT19        0.2106
    384  N1         8.8520    7.0220   11.5880 N.ar   19  DT19       -0.2559
    385  C2         9.5340    7.8030   10.6750 C.ar   19  DT19        0.3545
    386  O2         9.1270    8.8870   10.2940 O.2    19  DT19       -0.2443
    387  N3        10.7150    7.2690   10.2200 N.ar   19  DT19       -0.1533
    388  C4        11.2700    6.0580   10.5780 C.ar   19  DT19        0.2804
    389  O4        12.3410    5.7140   10.0840 O.2    19  DT19       -0.2654
    390  C5        10.5020    5.3050   11.5290 C.ar   19  DT19        0.0534
    391  C6         9.3500    5.8010   11.9880 C.ar   19  DT19        0.0824
    392  C7        11.0220    3.9730   11.9810 C.3    19  DT19        0.0377
    393  P          3.9820    5.8920    9.5950 P.3    20  DG20        0.2141
    394  OP1        2.5100    6.0200    9.4030 O.3    20  DG20       -0.4373
    395  OP2        4.6470    4.5850    9.3560 O.2    20  DG20       -0.5172
    396  O5'        4.7800    7.0140    8.8040 O.3    20  DG20       -0.3114
    397  C5'        4.2370    8.3020    8.6660 C.3    20  DG20        0.1811
    398  C4'        4.9050    9.0090    7.5370 C.3    20  DG20        0.1746
    399  O4'        6.2280    9.3890    7.9510 O.3    20  DG20       -0.3327
    400  C3'        5.1230    8.1620    6.3080 C.3    20  DG20        0.1558
    401  O3'        3.9530    8.0720    5.5130 O.3    20  DG20       -0.3138
    402  C2'        6.3110    8.8460    5.6420 C.3    20  DG20        0.0865
    403  C1'        7.1180    9.2900    6.8570 C.3    20  DG20        0.2094
    404  N9         8.1890    8.3310    7.1750 N.ar   20  DG20       -0.2713
    405  C8         8.1700    7.1880    7.9370 C.ar   20  DG20        0.1816
    406  N7         9.2050    6.4180    7.7370 N.ar   20  DG20       -0.2173
    407  C5         9.9540    7.0900    6.7900 C.ar   20  DG20        0.1748
    408  C6        11.1860    6.7480    6.1740 C.ar   20  DG20        0.3023
    409  O6        11.8810    5.7410    6.3590 O.2    20  DG20       -0.2633
    410  N1        11.5980    7.7150    5.2620 N.ar   20  DG20       -0.1709
    411  C2        10.9090    8.8700    4.9770 C.ar   20  DG20        0.2606
    412  N2        11.4660    9.6820    4.0690 N.pl3  20  DG20       -0.0859
    413  N3         9.7630    9.2010    5.5400 N.ar   20  DG20       -0.1918
    414  C4         9.3430    8.2760    6.4290 C.ar   20  DG20        0.1722
    415  P          3.8300    6.8600    4.0090 P.3    21  DG21        0.2141
    416  OP1        2.4550    6.8430    3.4830 O.2    21  DG21       -0.5172
    417  OP2        4.3240    5.8220    4.9310 O.3    21  DG21       -0.4373
    418  O5'        4.8280    6.8500    2.7620 O.3    21  DG21       -0.3114
    419  C5'        4.6410    7.7190    1.6750 C.3    21  DG21        0.1811
    420  C4'        5.8690    7.6870    0.7950 C.3    21  DG21        0.1746
    421  O4'        7.0120    8.1710    1.5290 O.3    21  DG21       -0.3327
    422  C3'        6.2960    6.3030    0.3320 C.3    21  DG21        0.1558
    423  O3'        5.5150    5.9310   -0.7540 O.3    21  DG21       -0.3138
    424  C2'        7.7530    6.5570   -0.0320 C.3    21  DG21        0.0865
    425  C1'        8.1470    7.3990    1.1700 C.3    21  DG21        0.2094
    426  N9         8.6610    6.5400    2.2630 N.ar   21  DG21       -0.2713
    427  C8         8.0280    6.2300    3.4430 C.ar   21  DG21        0.1816
    428  N7         8.7800    5.5560    4.2700 N.ar   21  DG21       -0.2173
    429  C5         9.9810    5.4110    3.6010 C.ar   21  DG21        0.1748
    430  C6        11.1840    4.7670    3.9920 C.ar   21  DG21        0.3023
    431  O6        11.4270    4.1770    5.0510 O.2    21  DG21       -0.2633
    432  N1        12.1640    4.8540    3.0070 N.ar   21  DG21       -0.1709
    433  C2        12.0060    5.4830    1.7960 C.ar   21  DG21        0.2606
    434  N2        13.0660    5.4630    0.9760 N.pl3  21  DG21       -0.0859
    435  N3        10.8950    6.0850    1.4180 N.ar   21  DG21       -0.1918
    436  C4         9.9280    6.0130    2.3580 C.ar   21  DG21        0.1722
    437  P          5.0790    4.5180   -0.9580 P.3    22  DT22        0.2141
    438  OP1        4.6090    3.4360   -1.8600 O.2    22  DT22       -0.5172
    439  OP2        4.8230    4.4210    0.5060 O.3    22  DT22       -0.4373
    440  O5'        6.6520    4.6970   -1.1500 O.3    22  DT22       -0.3114
    441  C5'        7.1990    5.1050   -2.3990 C.3    22  DT22        0.1811
    442  C4'        8.5290    4.4290   -2.6290 C.3    22  DT22        0.1746
    443  O4'        9.4220    4.7690   -1.5340 O.3    22  DT22       -0.3327
    444  C3'        8.5070    2.9080   -2.6370 C.3    22  DT22        0.1558
    445  O3'        8.1660    2.4310   -3.9320 O.3    22  DT22       -0.3138
    446  C2'        9.9570    2.5880   -2.2940 C.3    22  DT22        0.0866
    447  C1'       10.2450    3.6510   -1.2310 C.3    22  DT22        0.2106
    448  N1        10.0510    3.0860    0.1570 N.ar   22  DT22       -0.2559
    449  C2        11.1330    2.4220    0.7030 C.ar   22  DT22        0.3545
    450  O2        12.2240    2.3750    0.1630 O.2    22  DT22       -0.2443
    451  N3        10.8910    1.8100    1.9090 N.ar   22  DT22       -0.1533
    452  C4         9.7020    1.7970    2.6090 C.ar   22  DT22        0.2804
    453  O4         9.6400    1.2040    3.6830 O.2    22  DT22       -0.2654
    454  C5         8.6270    2.5070    1.9770 C.ar   22  DT22        0.0534
    455  C6         8.8340    3.1110    0.8040 C.ar   22  DT22        0.0824
    456  C7         7.2920    2.5500    2.6600 C.3    22  DT22        0.0377
    457  P          7.5240    0.9020   -4.1600 P.3    23  DG23        0.2141
    458  OP1        7.2060    0.8410   -5.5960 O.2    23  DG23       -0.5172
    459  OP2        6.4710    0.8610   -3.1280 O.3    23  DG23       -0.4373
    460  O5'        8.4950   -0.2660   -3.7800 O.3    23  DG23       -0.3114
    461  C5'        9.5950   -0.5910   -4.6090 C.3    23  DG23        0.1811
    462  C4'       10.4830   -1.5820   -3.9040 C.3    23  DG23        0.1746
    463  O4'       11.1720   -1.0000   -2.7660 O.3    23  DG23       -0.3327
    464  C3'        9.7220   -2.7310   -3.3040 C.3    23  DG23        0.1558
    465  O3'        9.4190   -3.8120   -4.2240 O.3    23  DG23       -0.3138
    466  C2'       10.7450   -3.2210   -2.3080 C.3    23  DG23        0.0865
    467  C1'       11.3250   -1.9410   -1.7330 C.3    23  DG23        0.2094
    468  N9        10.5650   -1.4800   -0.5580 N.ar   23  DG23       -0.2713
    469  C8         9.6810   -0.4320   -0.4690 C.ar   23  DG23        0.1816
    470  N7         9.1740   -0.2860    0.7240 N.ar   23  DG23       -0.2173
    471  C5         9.7570   -1.2930    1.4700 C.ar   23  DG23        0.1748
    472  C6         9.5970   -1.6410    2.8360 C.ar   23  DG23        0.3023
    473  O6         8.8770   -1.1000    3.6850 O.2    23  DG23       -0.2633
    474  N1        10.3790   -2.7370    3.1900 N.ar   23  DG23       -0.1709
    475  C2        11.2130   -3.4140    2.3330 C.ar   23  DG23        0.2606
    476  N2        11.8880   -4.4460    2.8570 N.pl3  23  DG23       -0.0859
    477  N3        11.3720   -3.1030    1.0610 N.ar   23  DG23       -0.1918
    478  C4        10.6210   -2.0430    0.6960 C.ar   23  DG23        0.1722
    479  P          7.9480   -4.6560   -4.0870 P.3    24  DC24        0.2141
    480  OP1        7.7550   -5.5520   -5.2410 O.2    24  DC24       -0.5172
    481  OP2        6.7940   -4.3760   -3.2050 O.3    24  DC24       -0.4373
    482  O5'        9.1510   -5.2080   -3.2160 O.3    24  DC24       -0.3114
    483  C5'        9.8640   -6.3290   -3.5760 C.3    24  DC24        0.1811
    484  C4'       10.0930   -7.0910   -2.3160 C.3    24  DC24        0.1746
    485  O4'       10.4330   -6.1910   -1.2430 O.3    24  DC24       -0.3327
    486  C3'        8.8590   -7.7440   -1.7720 C.3    24  DC24        0.1558
    487  O3'        8.5050   -8.8720   -2.5610 O.3    24  DC24       -0.3138
    488  C2'        9.3210   -8.0670   -0.3560 C.3    24  DC24        0.0866
    489  C1'       10.0680   -6.7950   -0.0150 C.3    24  DC24        0.2106
    490  N1         9.2370   -5.9280    0.6960 N.ar   24  DC24       -0.2556
    491  C2         8.9930   -6.1180    2.0610 C.ar   24  DC24        0.3531
    492  O2         9.5440   -7.0690    2.6410 O.2    24  DC24       -0.2443
    493  N3         8.1650   -5.2630    2.7080 N.ar   24  DC24       -0.1739
    494  C4         7.5950   -4.2570    2.0450 C.ar   24  DC24        0.1759
    495  N4         6.7860   -3.4400    2.7240 N.pl3  24  DC24       -0.1070
    496  C5         7.8290   -4.0470    0.6620 C.ar   24  DC24        0.0566
    497  C6         8.6470   -4.8940    0.0270 C.ar   24  DC24        0.0849
    498  P          7.0670   -9.5010   -2.3790 P.3    25  DT25        0.2141
    499  OP1        6.7440  -10.5890   -3.3310 O.2    25  DT25       -0.5172
    500  OP2        6.1570   -8.3450   -2.2460 O.3    25  DT25       -0.4373
    501  O5'        7.1560  -10.0760   -0.8880 O.3    25  DT25       -0.3114
    502  C5'        8.1540  -11.0020   -0.4770 C.3    25  DT25        0.1811
    503  C4'        8.0620  -11.2650    1.0060 C.3    25  DT25        0.1746
    504  O4'        8.3970  -10.0630    1.7460 O.3    25  DT25       -0.3327
    505  C3'        6.6830  -11.6550    1.5070 C.3    25  DT25        0.1558
    506  O3'        6.4490  -13.0430    1.3810 O.3    25  DT25       -0.3138
    507  C2'        6.6830  -11.1880    2.9540 C.3    25  DT25        0.0866
    508  C1'        7.5710   -9.9480    2.8890 C.3    25  DT25        0.2106
    509  N1         6.8440   -8.6690    2.8190 N.ar   25  DT25       -0.2559
    510  C2         6.2500   -8.2730    4.0020 C.ar   25  DT25        0.3545
    511  O2         6.3990   -8.8700    5.0530 O.2    25  DT25       -0.2443
    512  N3         5.4690   -7.1460    3.9110 N.ar   25  DT25       -0.1533
    513  C4         5.2280   -6.3920    2.7810 C.ar   25  DT25        0.2804
    514  O4         4.5030   -5.4030    2.8560 O.2    25  DT25       -0.2654
    515  C5         5.8790   -6.8680    1.5930 C.ar   25  DT25        0.0534
    516  C6         6.6440   -7.9620    1.6540 C.ar   25  DT25        0.0824
    517  C7         5.6780   -6.1160    0.3110 C.3    25  DT25        0.0377
    518  P          4.8880  -13.6630    1.1520 P.3    26  DA26        0.2141
    519  OP1        4.9800  -15.1260    0.9550 O.3    26  DA26       -0.4373
    520  OP2        3.7150  -12.8850    0.6940 O.2    26  DA26       -0.5172
    521  O5'        4.9540  -13.3490    2.7090 O.3    26  DA26       -0.3114
    522  C5'        5.9650  -13.9830    3.4680 C.3    26  DA26        0.1811
    523  C4'        5.8650  -13.5460    4.9000 C.3    26  DA26        0.1746
    524  O4'        6.2370  -12.1490    4.9830 O.3    26  DA26       -0.3327
    525  C3'        4.4790  -13.5940    5.5290 C.3    26  DA26        0.1558
    526  O3'        4.1190  -14.8900    5.9750 O.3    26  DA26       -0.3138
    527  C2'        4.6400  -12.6020    6.6680 C.3    26  DA26        0.0865
    528  C1'        5.4980  -11.5260    6.0070 C.3    26  DA26        0.2094
    529  N9         4.7790  -10.4780    5.4450 N.ar   26  DA26       -0.2714
    530  C8         4.4170  -10.3310    4.1320 C.ar   26  DA26        0.1815
    531  N7         3.6650   -9.2790    3.9060 N.ar   26  DA26       -0.2193
    532  C5         3.5230   -8.6980    5.1560 C.ar   26  DA26        0.1518
    533  C6         2.8390   -7.5500    5.5930 C.ar   26  DA26        0.1919
    534  N6         2.1420   -6.7510    4.7810 N.pl3  26  DA26       -0.1054
    535  N1         2.8970   -7.2480    6.9070 N.ar   26  DA26       -0.2040
    536  C2         3.5970   -8.0490    7.7190 C.ar   26  DA26        0.2016
    537  N3         4.2810   -9.1530    7.4270 N.ar   26  DA26       -0.2048
    538  C4         4.2030   -9.4250    6.1140 C.ar   26  DA26        0.1691
    539  P          2.5670  -15.4490    6.0940 P.3    27  DT27        0.2141
    540  OP1        2.5290  -16.8910    6.4540 O.3    27  DT27       -0.4373
    541  OP2        1.8710  -14.9760    4.8850 O.2    27  DT27       -0.5172
    542  O5'        2.0280  -14.6100    7.3300 O.3    27  DT27       -0.3114
    543  C5'        2.5400  -14.8520    8.6490 C.3    27  DT27        0.1811
    544  C4'        1.8770  -13.9280    9.6260 C.3    27  DT27        0.1746
    545  O4'        2.2990  -12.5700    9.3540 O.3    27  DT27       -0.3327
    546  C3'        0.3660  -13.8900    9.5100 C.3    27  DT27        0.1558
    547  O3'       -0.2560  -14.9570   10.2240 O.3    27  DT27       -0.3138
    548  C2'        0.0230  -12.5000   10.0370 C.3    27  DT27        0.0866
    549  C1'        1.2150  -11.6860    9.5410 C.3    27  DT27        0.2106
    550  N1         0.9810  -11.0120    8.2420 N.ar   27  DT27       -0.2559
    551  C2         0.5800   -9.6900    8.2600 C.ar   27  DT27        0.3545
    552  O2         0.5830   -9.0090    9.2700 O.2    27  DT27       -0.2443
    553  N3         0.1710   -9.1900    7.0470 N.ar   27  DT27       -0.1533
    554  C4         0.1240   -9.8650    5.8450 C.ar   27  DT27        0.2804
    555  O4        -0.2670   -9.2800    4.8380 O.2    27  DT27       -0.2654
    556  C5         0.5550  -11.2330    5.9080 C.ar   27  DT27        0.0534
    557  C6         0.9580  -11.7440    7.0750 C.ar   27  DT27        0.0824
    558  C7         0.5400  -12.0520    4.6510 C.3    27  DT27        0.0377
    559  P         -1.8600  -15.3220    9.9550 P.3    28  DC28        0.2141
    560  OP1       -2.3630  -16.5700   10.5920 O.3    28  DC28       -0.4373
    561  OP2       -2.1770  -15.0500    8.5280 O.2    28  DC28       -0.5172
    562  O5'       -2.3350  -14.0630   10.8160 O.3    28  DC28       -0.3114
    563  C5'       -2.0630  -13.9960   12.2240 C.3    28  DC28        0.1811
    564  C4'       -2.3040  -12.6010   12.7600 C.3    28  DC28        0.1746
    565  O4'       -1.4130  -11.6540   12.1070 O.3    28  DC28       -0.3327
    566  C3'       -3.6710  -11.9570   12.5570 C.3    28  DC28        0.1558
    567  O3'       -4.6740  -12.4640   13.4420 O.3    28  DC28       -0.3138
    568  C2'       -3.3470  -10.5000   12.8680 C.3    28  DC28        0.0866
    569  C1'       -1.9730  -10.3520   12.1960 C.3    28  DC28        0.2106
    570  N1        -2.1400   -9.8400   10.8340 N.ar   28  DC28       -0.2556
    571  C2        -2.0700   -8.4600   10.6150 C.ar   28  DC28        0.3531
    572  O2        -1.8850   -7.7090   11.5880 O.2    28  DC28       -0.2443
    573  N3        -2.2080   -7.9840    9.3540 N.ar   28  DC28       -0.1739
    574  C4        -2.4070   -8.8280    8.3410 C.ar   28  DC28        0.1759
    575  N4        -2.5380   -8.3130    7.1160 N.pl3  28  DC28       -0.1070
    576  C5        -2.4810  -10.2300    8.5420 C.ar   28  DC28        0.0566
    577  C6        -2.3440  -10.6950    9.7880 C.ar   28  DC28        0.0849
    578  P         -6.2710  -12.1040   13.1580 P.3    29  DA29        0.2141
    579  OP1       -7.0060  -12.7270   14.2810 O.3    29  DA29       -0.4373
    580  OP2       -6.3240  -12.7300   11.8160 O.2    29  DA29       -0.5172
    581  O5'       -6.7470  -10.5790   13.0530 O.3    29  DA29       -0.3114
    582  C5'       -6.7800   -9.7830   14.2320 C.3    29  DA29        0.1811
    583  C4'       -6.9000   -8.3040   13.9210 C.3    29  DA29        0.1746
    584  O4'       -5.7400   -7.8260   13.1920 O.3    29  DA29       -0.3327
    585  C3'       -8.0600   -7.9230   13.0200 C.3    29  DA29        0.1558
    586  O3'       -9.2960   -7.9620   13.7240 O.3    29  DA29       -0.3138
    587  C2'       -7.6250   -6.5280   12.5910 C.3    29  DA29        0.0865
    588  C1'       -6.1560   -6.8230   12.2700 C.3    29  DA29        0.2094
    589  N9        -5.9460   -7.4010   10.8570 N.ar   29  DA29       -0.2714
    590  C8        -5.5750   -8.6690   10.4950 C.ar   29  DA29        0.1815
    591  N7        -5.3660   -8.8120    9.2070 N.ar   29  DA29       -0.2193
    592  C5        -5.6190   -7.5520    8.6890 C.ar   29  DA29        0.1518
    593  C6        -5.5740   -7.0410    7.3800 C.ar   29  DA29        0.1919
    594  N6        -5.2430   -7.7710    6.3120 N.pl3  29  DA29       -0.1054
    595  N1        -5.8840   -5.7390    7.2040 N.ar   29  DA29       -0.2040
    596  C2        -6.2140   -5.0070    8.2750 C.ar   29  DA29        0.2016
    597  N3        -6.2910   -5.3740    9.5520 N.ar   29  DA29       -0.2048
    598  C4        -5.9780   -6.6730    9.6930 C.ar   29  DA29        0.1691
    599  P        -10.3670   -8.8280   13.1850 P.3    30  DT30        0.2141
    600  OP1      -11.5550   -8.9650   14.0670 O.3    30  DT30       -0.4373
    601  OP2       -9.9750   -9.9070   12.2470 O.2    30  DT30       -0.5172
    602  O5'      -10.5770   -7.5580   12.2400 O.3    30  DT30       -0.3114
    603  C5'      -11.0250   -6.3420   12.8080 C.3    30  DT30        0.1811
    604  C4'      -10.7870   -5.1810   11.8780 C.3    30  DT30        0.1746
    605  O4'       -9.5160   -5.3180   11.1930 O.3    30  DT30       -0.3327
    606  C3'      -11.7780   -5.0420   10.7440 C.3    30  DT30        0.1558
    607  O3'      -12.9940   -4.4810   11.1990 O.3    30  DT30       -0.3138
    608  C2'      -11.0160   -4.1860    9.7360 C.3    30  DT30        0.0866
    609  C1'       -9.5820   -4.6630    9.9440 C.3    30  DT30        0.2106
    610  N1        -9.4290   -5.5330    8.7580 N.ar   30  DT30       -0.2559
    611  C2        -9.1440   -5.0180    7.5070 C.ar   30  DT30        0.3545
    612  O2        -9.1810   -3.8270    7.2550 O.2    30  DT30       -0.2443
    613  N3        -8.8120   -5.9520    6.5560 N.ar   30  DT30       -0.1533
    614  C4        -8.7380   -7.3190    6.7260 C.ar   30  DT30        0.2804
    615  O4        -8.4240   -8.0310    5.7750 O.2    30  DT30       -0.2654
    616  C5        -9.0490   -7.7760    8.0510 C.ar   30  DT30        0.0534
    617  C6        -9.3750   -6.8890    8.9950 C.ar   30  DT30        0.0824
    618  C7        -8.9970   -9.2480    8.3360 C.3    30  DT30        0.0377
    619  P        -14.4870   -4.9190   10.3490 P.3    31  DG31        0.2141
    620  OP1      -15.8450   -5.2170   10.8820 O.3    31  DG31       -0.4373
    621  OP2      -13.9730   -5.6950    9.1980 O.2    31  DG31       -0.5172
    622  O5'      -14.4080   -3.3830    9.9390 O.3    31  DG31       -0.3114
    623  C5'      -15.1750   -2.4140   10.6360 C.3    31  DG31        0.1811
    624  C4'      -14.6260   -1.0400   10.3900 C.3    31  DG31        0.1746
    625  O4'      -13.1990   -1.0670   10.6500 O.3    31  DG31       -0.3327
    626  C3'      -14.7280   -0.4800    8.9790 C.3    31  DG31        0.1558
    627  O3'      -16.0050    0.1000    8.7000 O.3    31  DG31       -0.3138
    628  C2'      -13.6170    0.5680    8.9700 C.3    31  DG31        0.0865
    629  C1'      -12.5520   -0.0890    9.8530 C.3    31  DG31        0.2094
    630  N9       -11.5800   -0.9520    9.1150 N.ar   31  DG31       -0.2713
    631  C8       -11.5410   -2.3200    8.9940 C.ar   31  DG31        0.1816
    632  N7       -10.6500   -2.7350    8.1360 N.ar   31  DG31       -0.2173
    633  C5       -10.0630   -1.5770    7.6620 C.ar   31  DG31        0.1748
    634  C6        -9.0310   -1.3880    6.7070 C.ar   31  DG31        0.3023
    635  O6        -8.4100   -2.2490    6.0710 O.2    31  DG31       -0.2633
    636  N1        -8.7370   -0.0410    6.5170 N.ar   31  DG31       -0.1709
    637  C2        -9.3610    0.9970    7.1670 C.ar   31  DG31        0.2606
    638  N2        -8.9400    2.2300    6.8520 N.pl3  31  DG31       -0.0859
    639  N3       -10.3220    0.8380    8.0550 N.ar   31  DG31       -0.1918
    640  C4       -10.6240   -0.4630    8.2550 C.ar   31  DG31        0.1722
    641  P        -16.4700    0.4340    7.1640 P.3    32  DC32        0.2141
    642  OP1      -17.9190    0.7450    7.3080 O.3    32  DC32       -0.4373
    643  OP2      -15.9380   -0.6690    6.3400 O.2    32  DC32       -0.5172
    644  O5'      -15.7220    1.6810    6.4620 O.3    32  DC32       -0.3114
    645  C5'      -15.6980    3.0010    7.0340 C.3    32  DC32        0.1811
    646  C4'      -14.6290    3.8660    6.3850 C.3    32  DC32        0.1746
    647  O4'      -13.3580    3.4020    6.8610 O.3    32  DC32       -0.3327
    648  C3'      -14.4690    3.6890    4.9040 C.3    32  DC32        0.1558
    649  O3'      -15.4770    4.4220    4.2270 O.3    32  DC32       -0.3138
    650  C2'      -13.0390    4.1810    4.6630 C.3    32  DC32        0.0866
    651  C1'      -12.3770    3.5820    5.8730 C.3    32  DC32        0.2106
    652  N1       -11.7900    2.3660    5.5720 N.ar   32  DC32       -0.2556
    653  C2       -10.6320    2.2660    4.7930 C.ar   32  DC32        0.3531
    654  O2       -10.1140    3.3080    4.3560 O.2    32  DC32       -0.2443
    655  N3       -10.1120    1.0420    4.5370 N.ar   32  DC32       -0.1739
    656  C4       -10.7030   -0.0490    5.0260 C.ar   32  DC32        0.1759
    657  N4       -10.1550   -1.2340    4.7470 N.pl3  32  DC32       -0.1070
    658  C5       -11.8770    0.0310    5.8180 C.ar   32  DC32        0.0566
    659  C6       -12.3870    1.2410    6.0680 C.ar   32  DC32        0.0849
    660  P        -15.9030    3.9710    2.8010 P.3    33  DG33        0.2141
    661  OP1      -17.0790    4.6800    2.2330 O.2    33  DG33       -0.5172
    662  OP2      -15.8650    2.4850    2.7830 O.3    33  DG33       -0.4373
    663  O5'      -14.6300    4.4800    2.0010 O.3    33  DG33       -0.3114
    664  C5'      -14.3300    5.8750    1.9220 C.3    33  DG33        0.1811
    665  C4'      -13.1410    6.0850    1.0320 C.3    33  DG33        0.1746
    666  O4'      -11.9750    5.4380    1.6070 O.3    33  DG33       -0.3327
    667  C3'      -13.2850    5.4430   -0.3310 C.3    33  DG33        0.1558
    668  O3'      -14.0270    6.2560   -1.2160 O.3    33  DG33       -0.3138
    669  C2'      -11.8390    5.2350   -0.7580 C.3    33  DG33        0.0865
    670  C1'      -11.1820    4.8760    0.5740 C.3    33  DG33        0.2094
    671  N9       -11.0560    3.4660    0.7810 N.ar   33  DG33       -0.2713
    672  C8       -11.7990    2.6820    1.6290 C.ar   33  DG33        0.1816
    673  N7       -11.4220    1.4330    1.6390 N.ar   33  DG33       -0.2173
    674  C5       -10.3670    1.3860    0.7480 C.ar   33  DG33        0.1748
    675  C6        -9.5520    0.2990    0.3370 C.ar   33  DG33        0.3023
    676  O6        -9.6110   -0.8820    0.7010 O.2    33  DG33       -0.2633
    677  N1        -8.5910    0.6900   -0.5910 N.ar   33  DG33       -0.1709
    678  C2        -8.4340    1.9700   -1.0650 C.ar   33  DG33        0.2606
    679  N2        -7.4500    2.1530   -1.9560 N.pl3  33  DG33       -0.0859
    680  N3        -9.1830    2.9890   -0.6940 N.ar   33  DG33       -0.1918
    681  C4       -10.1240    2.6330    0.2060 C.ar   33  DG33        0.1722
    682  P        -14.9900    5.5130   -2.3570 P.3    34  DC34        0.2141
    683  OP1      -16.1630    6.2600   -2.8740 O.2    34  DC34       -0.5172
    684  OP2      -15.1800    4.1570   -1.7740 O.3    34  DC34       -0.4373
    685  O5'      -13.8800    5.3930   -3.4940 O.3    34  DC34       -0.3114
    686  C5'      -13.7060    6.4260   -4.4810 C.3    34  DC34        0.1811
    687  C4'      -12.9550    5.8800   -5.6710 C.3    34  DC34        0.1746
    688  O4'      -11.5770    5.6010   -5.2990 O.3    34  DC34       -0.3327
    689  C3'      -13.4690    4.5390   -6.1600 C.3    34  DC34        0.1558
    690  O3'      -14.6160    4.6560   -6.9810 O.3    34  DC34       -0.3138
    691  C2'      -12.2640    3.9760   -6.8870 C.3    34  DC34        0.0866
    692  C1'      -11.1420    4.4070   -5.9430 C.3    34  DC34        0.2106
    693  N1       -10.8910    3.3630   -4.8940 N.ar   34  DC34       -0.2556
    694  C2       -10.0290    2.3110   -5.2260 C.ar   34  DC34        0.3531
    695  O2        -9.4530    2.3340   -6.3270 O.2    34  DC34       -0.2443
    696  N3        -9.8500    1.3010   -4.3410 N.ar   34  DC34       -0.1739
    697  C4       -10.4910    1.3170   -3.1720 C.ar   34  DC34        0.1759
    698  N4       -10.2830    0.3010   -2.3310 N.pl3  34  DC34       -0.1070
    699  C5       -11.3680    2.3740   -2.8170 C.ar   34  DC34        0.0566
    700  C6       -11.5420    3.3690   -3.6930 C.ar   34  DC34        0.0849
    701  P        -15.8020    3.3820   -7.0540 P.3    35  DT35        0.2141
    702  OP1      -16.9330    3.5860   -8.0050 O.2    35  DT35       -0.5172
    703  OP2      -16.0540    2.7770   -5.7100 O.3    35  DT35       -0.4373
    704  O5'      -14.6860    2.5390   -7.8230 O.3    35  DT35       -0.3114
    705  C5'      -14.2250    2.9410   -9.1180 C.3    35  DT35        0.1811
    706  C4'      -13.2410    1.9370   -9.6620 C.3    35  DT35        0.1746
    707  O4'      -12.1560    1.7900   -8.7150 O.3    35  DT35       -0.3327
    708  C3'      -13.7900    0.5350   -9.8320 C.3    35  DT35        0.1558
    709  O3'      -14.3570    0.3390  -11.1150 O.3    35  DT35       -0.3138
    710  C2'      -12.5650   -0.3460   -9.6740 C.3    35  DT35        0.0866
    711  C1'      -11.7500    0.4360   -8.6530 C.3    35  DT35        0.2106
    712  N1       -11.9530   -0.1230   -7.3710 N.ar   35  DT35       -0.2559
    713  C2       -11.2490   -1.2570   -7.0150 C.ar   35  DT35        0.3545
    714  O2       -10.4290   -1.7860   -7.7440 O.2    35  DT35       -0.2443
    715  N3       -11.5400   -1.7540   -5.7680 N.ar   35  DT35       -0.1533
    716  C4       -12.4450   -1.2420   -4.8610 C.ar   35  DT35        0.2804
    717  O4       -12.5970   -1.8000   -3.7770 O.2    35  DT35       -0.2654
    718  C5       -13.1370   -0.0650   -5.3050 C.ar   35  DT35        0.0534
    719  C6       -12.8720    0.4400   -6.5130 C.ar   35  DT35        0.0824
    720  C7       -14.1430    0.5670   -4.3900 C.3    35  DT35        0.0377
    721  P        -15.4760   -0.9490  -11.3810 P.3    36  DC36        0.2141
    722  OP1      -16.1010   -0.1800  -12.4840 O.2    36  DC36       -0.5172
    723  OP2      -16.2730   -1.3840  -10.2120 O.3    36  DC36       -0.4373
    724  O5'      -14.8020   -2.3010  -11.9130 O.3    36  DC36       -0.3114
    725  C5'      -13.7480   -2.1970  -12.8600 C.3    36  DC36        0.1811
    726  C4'      -12.6310   -3.1850  -12.6200 C.3    36  DC36        0.1746
    727  O4'      -11.9720   -2.9220  -11.3540 O.3    36  DC36       -0.3327
    728  C3'      -13.0030   -4.6580  -12.5340 C.3    36  DC36        0.1558
    729  O3'      -13.2940   -5.2370  -13.7970 O.3    36  DC36       -0.3138
    730  C2'      -11.7730   -5.2420  -11.8440 C.3    36  DC36        0.0866
    731  C1'      -11.4250   -4.1270  -10.8590 C.3    36  DC36        0.2106
    732  N1       -11.8770   -4.4000   -9.5250 N.ar   36  DC36       -0.2556
    733  C2       -11.1900   -5.2440   -8.6460 C.ar   36  DC36        0.3531
    734  O2       -10.1570   -5.8100   -9.0450 O.2    36  DC36       -0.2443
    735  N3       -11.6700   -5.4220   -7.3920 N.ar   36  DC36       -0.1739
    736  C4       -12.7830   -4.7950   -7.0090 C.ar   36  DC36        0.1759
    737  N4       -13.2170   -5.0010   -5.7630 N.pl3  36  DC36       -0.1070
    738  C5       -13.4940   -3.9350   -7.8840 C.ar   36  DC36        0.0566
    739  C6       -13.0170   -3.7630   -9.1220 C.ar   36  DC36        0.0849
    740  P        -14.2060   -6.6270  -13.9870 P.3    37  DA37        0.2141
    741  OP1      -14.2030   -6.9240  -15.4150 O.2    37  DA37       -0.5172
    742  OP2      -15.4840   -6.4910  -13.2760 O.3    37  DA37       -0.4373
    743  O5'      -13.1680   -7.6960  -13.3430 O.3    37  DA37       -0.3114
    744  C5'      -11.8720   -7.8440  -13.9450 C.3    37  DA37        0.1811
    745  C4'      -10.9450   -8.6070  -13.0220 C.3    37  DA37        0.1746
    746  O4'      -10.5670   -7.7690  -11.8830 O.3    37  DA37       -0.3327
    747  C3'      -11.5070   -9.8660  -12.3890 C.3    37  DA37        0.1558
    748  O3'      -11.2810  -10.9210  -13.2390 O.3    37  DA37       -0.3138
    749  C2'      -10.5780  -10.0190  -11.1890 C.3    37  DA37        0.0865
    750  C1'      -10.4190   -8.5560  -10.7180 C.3    37  DA37        0.2094
    751  N9       -11.4800   -8.2410   -9.7240 N.ar   37  DA37       -0.2714
    752  C8       -12.6470   -7.5420   -9.8910 C.ar   37  DA37        0.1815
    753  N7       -13.3360   -7.3900   -8.7840 N.ar   37  DA37       -0.2193
    754  C5       -12.5690   -8.0340   -7.8260 C.ar   37  DA37        0.1518
    755  C6       -12.7500   -8.2290   -6.4450 C.ar   37  DA37        0.1919
    756  N6       -13.8050   -7.7740   -5.7660 N.pl3  37  DA37       -0.1054
    757  N1       -11.7970   -8.9160   -5.7800 N.ar   37  DA37       -0.2040
    758  C2       -10.7390   -9.3710   -6.4610 C.ar   37  DA37        0.2016
    759  N3       -10.4580   -9.2500   -7.7570 N.ar   37  DA37       -0.2048
    760  C4       -11.4240   -8.5640   -8.3900 C.ar   37  DA37        0.1691
    761  P        -12.2000  -11.9630  -13.1940 P.3    38  DA38        0.2141
    762  OP1      -11.7890  -12.9430  -14.2270 O.2    38  DA38       -0.5172
    763  OP2      -13.5960  -11.4810  -13.1340 O.3    38  DA38       -0.4373
    764  O5'      -11.9520  -12.5910  -11.7410 O.3    38  DA38       -0.3114
    765  C5'      -10.8510  -13.4630  -11.5240 C.3    38  DA38        0.1811
    766  C4'      -10.7600  -13.9470  -10.0950 C.3    38  DA38        0.1746
    767  O4'      -10.7720  -12.8150   -9.1800 O.3    38  DA38       -0.3327
    768  C3'      -11.9060  -14.8110   -9.5890 C.3    38  DA38        0.1558
    769  O3'      -11.8850  -16.1520  -10.0570 O.3    38  DA38       -0.3138
    770  C2'      -11.7440  -14.6720   -8.0790 C.3    38  DA38        0.0865
    771  C1'      -11.4230  -13.1820   -7.9800 C.3    38  DA38        0.2094
    772  N9       -12.6950  -12.3860   -7.8210 N.ar   38  DA38       -0.2714
    773  C8       -13.2870  -11.5810   -8.7590 C.ar   38  DA38        0.1815
    774  N7       -14.3670  -10.9730   -8.3280 N.ar   38  DA38       -0.2193
    775  C5       -14.4940  -11.4090   -7.0190 C.ar   38  DA38        0.1518
    776  C6       -15.4390  -11.1300   -6.0160 C.ar   38  DA38        0.1919
    777  N6       -16.4770  -10.3080   -6.1870 N.pl3  38  DA38       -0.1054
    778  N1       -15.2780  -11.7320   -4.8180 N.ar   38  DA38       -0.2040
    779  C2       -14.2360  -12.5550   -4.6480 C.ar   38  DA38        0.2016
    780  N3       -13.2830  -12.8950   -5.5130 N.ar   38  DA38       -0.2048
    781  C4       -13.4730  -12.2810   -6.6930 C.ar   38  DA38        0.1691
    782  P        -13.0800  -16.6520  -10.3440 P.3    39  DT39        0.2141
    783  OP1      -12.6310  -17.9710  -10.8450 O.3    39  DT39       -0.4373
    784  OP2      -13.8900  -15.7650  -11.2060 O.2    39  DT39       -0.5172
    785  O5'      -14.0370  -16.8810   -9.0780 O.3    39  DT39       -0.3114
    786  C5'      -13.8080  -17.9680   -8.1910 C.3    39  DT39        0.1811
    787  C4'      -14.6050  -17.8460   -6.9150 C.3    39  DT39        0.1746
    788  O4'      -14.4750  -16.5170   -6.3450 O.3    39  DT39       -0.3327
    789  C3'      -16.1010  -18.0110   -7.0750 C.3    39  DT39        0.1558
    790  O3'      -16.4820  -19.3660   -7.2130 O.3    39  DT39       -0.3138
    791  C2'      -16.6510  -17.3080   -5.8380 C.3    39  DT39        0.0866
    792  C1'      -15.6820  -16.1340   -5.7130 C.3    39  DT39        0.2106
    793  N1       -16.2770  -14.8840   -6.3700 N.ar   39  DT39       -0.2559
    794  C2       -17.1320  -14.0640   -5.6590 C.ar   39  DT39        0.3545
    795  O2       -17.5360  -14.3330   -4.5420 O.2    39  DT39       -0.2443
    796  N3       -17.5020  -12.9100   -6.3070 N.ar   39  DT39       -0.1533
    797  C4       -17.1110  -12.5040   -7.5660 C.ar   39  DT39        0.2804
    798  O4       -17.5270  -11.4380   -8.0140 O.2    39  DT39       -0.2654
    799  C5       -16.2240  -13.4100   -8.2400 C.ar   39  DT39        0.0534
    800  C6       -15.8480  -14.5390   -7.6330 C.ar   39  DT39        0.0824
    801  C7       -15.7420  -13.0580   -9.6160 C.3    39  DT39        0.0377
    802  P        -17.1580  -19.6790   -8.5600 P.3    40  DG40        0.2141
    803  OP1      -17.4620  -21.1350   -8.6890 O.3    40  DG40       -0.4373
    804  OP2      -16.9870  -18.8600   -9.7810 O.2    40  DG40       -0.5172
    805  O5'      -18.3220  -19.0000   -7.7070 O.3    40  DG40       -0.3114
    806  C5'      -18.8680  -19.6560   -6.5460 C.3    40  DG40        0.1811
    807  C4'      -20.1600  -18.9970   -6.1310 C.3    40  DG40        0.1746
    808  O4'      -19.8990  -17.6700   -5.5940 O.3    40  DG40       -0.3327
    809  C3'      -21.1580  -18.7460   -7.2460 C.3    40  DG40        0.1558
    810  O3'      -21.8800  -19.9180   -7.6000 O.3    40  DG40       -0.3138
    811  C2'      -22.0380  -17.6600   -6.6350 C.3    40  DG40        0.0865
    812  C1'      -20.9990  -16.8220   -5.8850 C.3    40  DG40        0.2094
    813  N9       -20.5380  -15.7040   -6.6930 N.ar   40  DG40       -0.2713
    814  C8       -19.5550  -15.7250   -7.6530 C.ar   40  DG40        0.1816
    815  N7       -19.4940  -14.6240   -8.3510 N.ar   40  DG40       -0.2173
    816  C5       -20.4920  -13.8270   -7.8230 C.ar   40  DG40        0.1748
    817  C6       -20.9090  -12.5170   -8.1730 C.ar   40  DG40        0.3023
    818  O6       -20.4540  -11.7770   -9.0540 O.2    40  DG40       -0.2633
    819  N1       -21.9670  -12.0780   -7.3800 N.ar   40  DG40       -0.1709
    820  C2       -22.5500  -12.8120   -6.3750 C.ar   40  DG40        0.2606
    821  N2       -23.5580  -12.2190   -5.7200 N.pl3  40  DG40       -0.0859
    822  N3       -22.1750  -14.0300   -6.0400 N.ar   40  DG40       -0.1918
    823  C4       -21.1500  -14.4770   -6.7970 C.ar   40  DG40        0.1722
    824  P        -22.6070  -20.0550   -9.1290 P.3    41  DG41        0.2141
    825  OP1      -22.4500  -21.4560   -8.6910 O.3    41  DG41       -0.4373
    826  OP2      -21.8690  -19.5900  -10.3280 O.2    41  DG41       -0.5172
    827  O5'      -24.1590  -19.8160   -9.3710 O.3    41  DG41       -0.3114
    828  C5'      -25.0320  -19.7400   -8.2410 C.3    41  DG41        0.1811
    829  C4'      -25.8520  -18.4630   -8.2500 C.3    41  DG41        0.1746
    830  O4'      -25.1030  -17.2990   -7.8120 O.3    41  DG41       -0.3327
    831  C3'      -26.4290  -18.0010   -9.5680 C.3    41  DG41        0.1558
    832  O3'      -27.5170  -18.8100   -9.9540 O.3    41  DG41       -0.3138
    833  C2'      -26.8910  -16.5950   -9.2100 C.3    41  DG41        0.0865
    834  C1'      -25.7500  -16.1310   -8.3060 C.3    41  DG41        0.2094
    835  N9       -24.8400  -15.3610   -9.0860 N.ar   41  DG41       -0.2713
    836  C8       -23.5970  -15.8010   -9.4720 C.ar   41  DG41        0.1816
    837  N7       -22.9040  -14.8960  -10.1070 N.ar   41  DG41       -0.2173
    838  C5       -23.7330  -13.7910  -10.1430 C.ar   41  DG41        0.1748
    839  C6       -23.5320  -12.5030  -10.7030 C.ar   41  DG41        0.3023
    840  O6       -22.5360  -12.0750  -11.2990 O.2    41  DG41       -0.2633
    841  N1       -24.6370  -11.6760  -10.5180 N.ar   41  DG41       -0.1709
    842  C2       -25.7930  -12.0450   -9.8720 C.ar   41  DG41        0.2606
    843  N2       -26.7480  -11.1090   -9.7920 N.pl3  41  DG41       -0.0859
    844  N3       -25.9950  -13.2380   -9.3480 N.ar   41  DG41       -0.1918
    845  C4       -24.9360  -14.0580   -9.5170 C.ar   41  DG41        0.1722
    846  P        -27.7810  -18.9680  -11.3650 P.3    42  DG42        0.2141
    847  OP1      -28.5530  -20.1990  -11.6470 O.3    42  DG42       -0.4373
    848  OP2      -26.4370  -18.7450  -11.9560 O.2    42  DG42       -0.5172
    849  O5'      -28.6200  -17.6830  -11.8250 O.3    42  DG42       -0.3114
    850  C5'      -29.9020  -17.4800  -11.2440 C.3    42  DG42        0.1811
    851  C4'      -30.4880  -16.1140  -11.5260 C.3    42  DG42        0.1746
    852  O4'      -29.6880  -15.0720  -10.9020 O.3    42  DG42       -0.3327
    853  C3'      -30.5470  -15.6690  -12.9790 C.3    42  DG42        0.1558
    854  O3'      -31.5420  -16.3040  -13.7600 O.3    42  DG42       -0.3138
    855  C2'      -30.7430  -14.1710  -12.8100 C.3    42  DG42        0.0865
    856  C1'      -29.7260  -13.9090  -11.7030 C.3    42  DG42        0.2094
    857  N9       -28.3840  -13.7090  -12.3440 N.ar   42  DG42       -0.2713
    858  C8       -27.3250  -14.5830  -12.3660 C.ar   42  DG42        0.1816
    859  N7       -26.2900  -14.1220  -13.0140 N.ar   42  DG42       -0.2173
    860  C5       -26.6850  -12.8690  -13.4440 C.ar   42  DG42        0.1748
    861  C6       -25.9890  -11.8900  -14.1990 C.ar   42  DG42        0.3023
    862  O6       -24.8380  -11.9460  -14.6500 O.2    42  DG42       -0.2633
    863  N1       -26.7630  -10.7540  -14.4180 N.ar   42  DG42       -0.1709
    864  C2       -28.0490  -10.5820  -13.9650 C.ar   42  DG42        0.2606
    865  N2       -28.6340   -9.4170  -14.2760 N.pl3  42  DG42       -0.0859
    866  N3       -28.7090  -11.4830  -13.2640 N.ar   42  DG42       -0.1918
    867  C4       -27.9770  -12.5950  -13.0400 C.ar   42  DG42        0.1722
    868  P        -31.0480  -17.0150  -15.1210 P.3    43  DA43        0.2141
    869  OP1      -32.0930  -18.0150  -15.5020 O.2    43  DA43       -0.5172
    870  OP2      -29.6100  -17.3830  -15.1830 O.3    43  DA43       -0.4373
    871  O5'      -31.2620  -15.7010  -15.9870 O.3    43  DA43       -0.3114
    872  C5'      -32.4570  -14.9370  -15.8790 C.3    43  DA43        0.1811
    873  C4'      -32.2700  -13.5990  -16.5380 C.3    43  DA43        0.1746
    874  O4'      -31.1560  -12.9170  -15.9100 O.3    43  DA43       -0.3327
    875  C3'      -31.8820  -13.6220  -18.0010 C.3    43  DA43        0.1558
    876  O3'      -32.9730  -13.8160  -18.8690 O.3    43  DA43       -0.3138
    877  C2'      -31.2230  -12.2670  -18.1860 C.3    43  DA43        0.0865
    878  C1'      -30.4800  -12.1180  -16.8690 C.3    43  DA43        0.2094
    879  N9       -29.1620  -12.4680  -17.1300 N.ar   43  DA43       -0.2714
    880  C8       -28.5990  -13.6820  -16.8320 C.ar   43  DA43        0.1815
    881  N7       -27.3210  -13.7580  -17.1220 N.ar   43  DA43       -0.2193
    882  C5       -27.0260  -12.5090  -17.6460 C.ar   43  DA43        0.1518
    883  C6       -25.8350  -11.9500  -18.1430 C.ar   43  DA43        0.1919
    884  N6       -24.6740  -12.6070  -18.1930 N.pl3  43  DA43       -0.1054
    885  N1       -25.8810  -10.6780  -18.5930 N.ar   43  DA43       -0.2040
    886  C2       -27.0450  -10.0200  -18.5420 C.ar   43  DA43        0.2016
    887  N3       -28.2280  -10.4370  -18.0970 N.ar   43  DA43       -0.2048
    888  C4       -28.1490  -11.7050  -17.6590 C.ar   43  DA43        0.1691
    889  P        -32.7390  -14.5690  -19.8350 P.3    44  DG44        0.2141
    890  OP1      -34.1380  -14.9040  -20.2330 O.2    44  DG44       -0.5172
    891  OP2      -31.7070  -15.6360  -19.8540 O.3    44  DG44       -0.4373
    892  O5'      -32.2130  -13.4100  -20.8070 O.3    44  DG44       -0.3114
    893  C5'      -33.0510  -12.3110  -21.1950 C.3    44  DG44        0.1811
    894  C4'      -32.2600  -11.2960  -22.0120 C.3    44  DG44        0.1746
    895  O4'      -31.1330  -10.8170  -21.2260 O.3    44  DG44       -0.3327
    896  C3'      -31.6390  -11.7840  -23.3170 C.3    44  DG44        0.1558
    897  O3'      -32.5710  -11.6970  -24.4000 O.3    44  DG44       -0.3138
    898  C2'      -30.4860  -10.8070  -23.5160 C.3    44  DG44        0.0865
    899  C1'      -30.0210  -10.5810  -22.0770 C.3    44  DG44        0.2094
    900  N9       -28.8990  -11.4480  -21.6270 N.ar   44  DG44       -0.2713
    901  C8       -28.9280  -12.5570  -20.8160 C.ar   44  DG44        0.1816
    902  N7       -27.7510  -13.0900  -20.6310 N.ar   44  DG44       -0.2173
    903  C5       -26.8920  -12.2880  -21.3590 C.ar   44  DG44        0.1748
    904  C6       -25.4880  -12.3690  -21.5440 C.ar   44  DG44        0.3023
    905  O6       -24.7000  -13.2010  -21.0770 O.2    44  DG44       -0.2633
    906  N1       -25.0120  -11.3500  -22.3650 N.ar   44  DG44       -0.1709
    907  C2       -25.7930  -10.3750  -22.9370 C.ar   44  DG44        0.2606
    908  N2       -25.1520   -9.4760  -23.6980 N.pl3  44  DG44       -0.0859
    909  N3       -27.0980  -10.2880  -22.7760 N.ar   44  DG44       -0.1918
    910  C4       -27.5830  -11.2670  -21.9830 C.ar   44  DG44        0.1722
    911  P        -32.2380  -12.4430  -25.8170 P.3    45  DA45        0.2141
    912  OP1      -33.3160  -12.0570  -26.7650 O.2    45  DA45       -0.5172
    913  OP2      -32.1490  -13.8490  -25.3470 O.3    45  DA45       -0.4373
    914  O5'      -30.8320  -12.0700  -26.4700 O.3    45  DA45       -0.3114
    915  C5'      -30.6800  -10.8880  -27.2860 C.3    45  DA45        0.1811
    916  C4'      -29.3330  -10.8910  -27.9700 C.3    45  DA45        0.1746
    917  O4'      -28.2900  -10.7600  -26.9710 O.3    45  DA45       -0.3327
    918  C3'      -28.9800  -12.1610  -28.7300 C.3    45  DA45        0.1558
    919  O3'      -29.5110  -12.1740  -30.0530 O.3    45  DA45       -0.3138
    920  C2'      -27.4570  -12.1510  -28.7200 C.3    45  DA45        0.0865
    921  C1'      -27.1590  -11.5240  -27.3570 C.3    45  DA45        0.2094
    922  N9       -26.8890  -12.5480  -26.3330 N.ar   45  DA45       -0.2714
    923  C8       -27.7190  -13.0890  -25.3860 C.ar   45  DA45        0.1815
    924  N7       -27.1650  -14.0490  -24.6840 N.ar   45  DA45       -0.2193
    925  C5       -25.8850  -14.1460  -25.2060 C.ar   45  DA45        0.1518
    926  C6       -24.7960  -14.9770  -24.8930 C.ar   45  DA45        0.1919
    927  N6       -24.8280  -15.9070  -23.9350 N.pl3  45  DA45       -0.1054
    928  N1       -23.6600  -14.8180  -25.6050 N.ar   45  DA45       -0.2040
    929  C2       -23.6290  -13.8850  -26.5640 C.ar   45  DA45        0.2016
    930  N3       -24.5860  -13.0440  -26.9500 N.ar   45  DA45       -0.2048
    931  C4       -25.7010  -13.2280  -26.2230 C.ar   45  DA45        0.1691
    932  P        -29.7530  -13.6610  -30.8460 P.3    46  DC46        0.2141
    933  OP1      -30.5430  -13.2030  -32.0280 O.2    46  DC46       -0.5172
    934  OP2      -30.4360  -14.3130  -29.6940 O.3    46  DC46       -0.4373
    935  O5'      -28.5810  -14.5990  -31.3380 O.3    46  DC46       -0.3114
    936  C5'      -27.6790  -14.1520  -32.3360 C.3    46  DC46        0.1812
    937  C4'      -26.4460  -15.0230  -32.3570 C.3    46  DC46        0.1775
    938  O4'      -25.6990  -14.8640  -31.1140 O.3    46  DC46       -0.3326
    939  C3'      -26.6970  -16.5190  -32.4350 C.3    46  DC46        0.1859
    940  O3'      -27.0380  -16.9850  -33.7410 O.3    46  DC46       -0.2203
    941  C2'      -25.3970  -17.1030  -31.8760 C.3    46  DC46        0.0895
    942  C1'      -25.0360  -16.0840  -30.7880 C.3    46  DC46        0.2107
    943  N1       -25.5020  -16.5230  -29.4070 N.ar   46  DC46       -0.2556
    944  C2       -24.6580  -17.4160  -28.7360 C.ar   46  DC46        0.3531
    945  O2       -23.5860  -17.7430  -29.2720 O.2    46  DC46       -0.2443
    946  N3       -25.0340  -17.8960  -27.5270 N.ar   46  DC46       -0.1739
    947  C4       -26.1950  -17.5180  -26.9900 C.ar   46  DC46        0.1759
    948  N4       -26.5240  -18.0180  -25.7970 N.pl3  46  DC46       -0.1070
    949  C5       -27.0640  -16.6150  -27.6540 C.ar   46  DC46        0.0566
    950  C6       -26.6890  -16.1420  -28.8480 C.ar   46  DC46        0.0849
    951  P        -27.7560  -19.1000  -34.0080 P.3    47  DT47        0.5411
    952  OP1      -27.4560  -19.3800  -35.4300 O.2    47  DT47       -0.2272
    953  OP2      -29.1030  -18.5870  -33.6330 O.2    47  DT47       -0.2272
    954  O5'      -27.4900  -20.4120  -33.1390 O.3    47  DT47       -0.2722
    955  C5'      -26.2280  -21.0960  -33.1770 C.3    47  DT47        0.1850
    956  C4'      -26.1290  -22.0850  -32.0310 C.3    47  DT47        0.1748
    957  O4'      -26.1640  -21.3610  -30.7710 O.3    47  DT47       -0.3327
    958  C3'      -27.2530  -23.1020  -31.8940 C.3    47  DT47        0.1558
    959  O3'      -27.0790  -24.2280  -32.7420 O.3    47  DT47       -0.3138
    960  C2'      -27.1410  -23.4980  -30.4300 C.3    47  DT47        0.0866
    961  C1'      -26.8080  -22.1500  -29.7850 C.3    47  DT47        0.2106
    962  N1       -28.0190  -21.4210  -29.3230 N.ar   47  DT47       -0.2559
    963  C2       -28.5330  -21.7650  -28.0870 C.ar   47  DT47        0.3545
    964  O2       -28.0810  -22.6690  -27.4080 O.2    47  DT47       -0.2443
    965  N3       -29.6030  -21.0090  -27.6720 N.ar   47  DT47       -0.1533
    966  C4       -30.1970  -19.9670  -28.3540 C.ar   47  DT47        0.2804
    967  O4       -31.1520  -19.3810  -27.8500 O.2    47  DT47       -0.2654
    968  C5       -29.6070  -19.6720  -29.6290 C.ar   47  DT47        0.0534
    969  C6       -28.5660  -20.3910  -30.0570 C.ar   47  DT47        0.0824
    970  C7       -30.1830  -18.5550  -30.4480 C.3    47  DT47        0.0377
    971  P        -28.3910  -25.0790  -33.2590 P.3    48  DT48        0.2141
    972  OP1      -27.8520  -26.0280  -34.2700 O.2    48  DT48       -0.5172
    973  OP2      -29.5610  -24.2340  -33.6080 O.3    48  DT48       -0.4373
    974  O5'      -28.7100  -25.8860  -31.9120 O.3    48  DT48       -0.3114
    975  C5'      -27.8470  -26.9400  -31.4830 C.3    48  DT48        0.1811
    976  C4'      -28.1080  -27.3460  -30.0360 C.3    48  DT48        0.1746
    977  O4'      -28.0490  -26.1700  -29.1730 O.3    48  DT48       -0.3327
    978  C3'      -29.4670  -27.9640  -29.7030 C.3    48  DT48        0.1558
    979  O3'      -29.5580  -29.3570  -30.0310 O.3    48  DT48       -0.3138
    980  C2'      -29.5760  -27.7080  -28.2010 C.3    48  DT48        0.0866
    981  C1'      -28.9580  -26.3200  -28.0880 C.3    48  DT48        0.2106
    982  N1       -29.9460  -25.2850  -28.1810 N.ar   48  DT48       -0.2568
    983  C2       -30.6280  -24.9730  -27.0210 C.ar   48  DT48        0.3415
    984  O2       -30.3630  -25.4680  -25.9400 O.3    48  DT48       -0.2881
    985  N3       -31.6400  -24.0550  -27.1710 N.ar   48  DT48       -0.1543
    986  C4       -32.0280  -23.4330  -28.3390 C.ar   48  DT48        0.2804
    987  O4       -32.9570  -22.6280  -28.3160 O.2    48  DT48       -0.2654
    988  C5       -31.2720  -23.8100  -29.5000 C.ar   48  DT48        0.0534
    989  C6       -30.2830  -24.7000  -29.3820 C.ar   48  DT48        0.0824
    990  C7       -31.6190  -23.1880  -30.8200 C.3    48  DT48        0.0377
    991  P        -30.9690  -30.1020  -29.8240 P.3    49  DT49        0.2141
    992  OP1      -29.9650  -31.0940  -30.2830 O.2    49  DT49       -0.5172
    993  OP2      -32.4080  -30.4640  -29.8040 O.3    49  DT49       -0.4373
    994  O5'      -30.6540  -29.7300  -28.2960 O.3    49  DT49       -0.3114
    995  C5'      -31.2960  -30.5800  -27.3480 C.3    49  DT49        0.1812
    996  C4'      -30.7570  -30.5620  -25.9300 C.3    49  DT49        0.1775
    997  O4'      -29.7020  -31.5540  -25.7880 O.3    49  DT49       -0.3326
    998  C3'      -30.1950  -29.2430  -25.4060 C.3    49  DT49        0.1859
    999  O3'      -31.0230  -28.5990  -24.4450 O.3    49  DT49       -0.2202
   1000  C2'      -28.8960  -29.6070  -24.6990 C.3    49  DT49        0.0895
   1001  C1'      -28.6780  -31.0930  -24.9300 C.3    49  DT49        0.2107
   1002  N1       -27.3280  -31.1570  -25.5690 N.ar   49  DT49       -0.2559
   1003  C2       -26.2150  -30.9020  -24.7900 C.ar   49  DT49        0.3545
   1004  O2       -26.2810  -30.6570  -23.5980 O.2    49  DT49       -0.2443
   1005  N3       -25.0160  -30.9420  -25.4590 N.ar   49  DT49       -0.1533
   1006  C4       -24.8210  -31.2060  -26.7980 C.ar   49  DT49        0.2804
   1007  O4       -23.6810  -31.2080  -27.2550 O.2    49  DT49       -0.2654
   1008  C5       -26.0250  -31.4600  -27.5400 C.ar   49  DT49        0.0534
   1009  C6       -27.2040  -31.4270  -26.9140 C.ar   49  DT49        0.0824
   1010  C7       -25.9190  -31.7570  -29.0060 C.3    49  DT49        0.0377
   1011  P        -30.9310  -26.9340  -24.4780 P.3    50  DA50        0.4283
   1012  OP1      -31.8880  -26.8790  -23.3490 O.2    50  DA50       -0.2656
   1013  OP2      -30.2240  -25.7080  -24.9080 O.3    50  DA50       -0.1039
   1014  O5'      -29.8270  -28.0530  -24.1760 O.3    50  DA50       -0.2177
   1015  C5'      -29.4850  -28.3750  -22.8370 C.3    50  DA50        0.2140
   1016  C4'      -27.9880  -28.5720  -22.6670 C.3    50  DA50        0.1776
   1017  O4'      -27.3900  -29.0820  -23.8850 O.3    50  DA50       -0.3326
   1018  C3'      -27.1930  -27.3030  -22.4050 C.3    50  DA50        0.1559
   1019  O3'      -27.3360  -26.9010  -21.0490 O.3    50  DA50       -0.3138
   1020  C2'      -25.7800  -27.7930  -22.7070 C.3    50  DA50        0.0865
   1021  C1'      -26.0190  -28.7220  -23.8960 C.3    50  DA50        0.2094
   1022  N9       -25.6820  -27.9580  -25.1440 N.ar   50  DA50       -0.2714
   1023  C8       -26.5360  -27.3490  -26.0260 C.ar   50  DA50        0.1815
   1024  N7       -25.9400  -26.8580  -27.0870 N.ar   50  DA50       -0.2193
   1025  C5       -24.6030  -27.1640  -26.8860 C.ar   50  DA50        0.1518
   1026  C6       -23.4510  -26.9150  -27.6530 C.ar   50  DA50        0.1919
   1027  N6       -23.4660  -26.2750  -28.8240 N.pl3  50  DA50       -0.1054
   1028  N1       -22.2690  -27.3530  -27.1680 N.ar   50  DA50       -0.2040
   1029  C2       -22.2550  -27.9950  -25.9940 C.ar   50  DA50        0.2016
   1030  N3       -23.2700  -28.2890  -25.1840 N.ar   50  DA50       -0.2048
   1031  C4       -24.4290  -27.8400  -25.6940 C.ar   50  DA50        0.1691
   1032  P        -27.1760  -25.1680  -20.5470 P.3    51  DG51        0.2141
   1033  OP1      -27.3930  -25.3220  -19.0900 O.3    51  DG51       -0.4373
   1034  OP2      -27.8850  -24.0930  -21.2790 O.2    51  DG51       -0.5172
   1035  O5'      -25.5990  -25.0370  -20.8200 O.3    51  DG51       -0.3114
   1036  C5'      -24.6580  -25.5130  -19.8640 C.3    51  DG51        0.1811
   1037  C4'      -23.4350  -26.1080  -20.5370 C.3    51  DG51        0.1746
   1038  O4'      -23.7690  -26.5570  -21.8770 O.3    51  DG51       -0.3327
   1039  C3'      -22.2840  -25.1400  -20.7720 C.3    51  DG51        0.1558
   1040  O3'      -21.5220  -24.9170  -19.5880 O.3    51  DG51       -0.3138
   1041  C2'      -21.5180  -25.8960  -21.8510 C.3    51  DG51        0.0865
   1042  C1'      -22.6900  -26.2630  -22.7510 C.3    51  DG51        0.2094
   1043  N9       -23.1040  -25.0320  -23.6130 N.ar   51  DG51       -0.2713
   1044  C8       -24.3900  -24.5570  -23.5270 C.ar   51  DG51        0.1816
   1045  N7       -24.7130  -23.7630  -24.5110 N.ar   51  DG51       -0.2173
   1046  C5       -23.5770  -23.7100  -25.2960 C.ar   51  DG51        0.1748
   1047  C6       -23.3200  -23.0080  -26.5020 C.ar   51  DG51        0.3023
   1048  O6       -24.0820  -22.2660  -27.1340 O.2    51  DG51       -0.2633
   1049  N1       -22.0280  -23.2320  -26.9690 N.ar   51  DG51       -0.1709
   1050  C2       -21.0980  -24.0340  -26.3520 C.ar   51  DG51        0.2606
   1051  N2       -19.9050  -24.1270  -26.9540 N.pl3  51  DG51       -0.0859
   1052  N3       -21.3220  -24.6920  -25.2320 N.ar   51  DG51       -0.1918
   1053  C4       -22.5700  -24.4890  -24.7590 C.ar   51  DG51        0.1722
   1054  P        -20.8690  -23.4630  -19.4180 P.3    52  DC52        0.2141
   1055  OP1      -20.3190  -23.6370  -18.0650 O.3    52  DC52       -0.4373
   1056  OP2      -22.2410  -22.9200  -19.5420 O.2    52  DC52       -0.5172
   1057  O5'      -19.8440  -22.5460  -20.2340 O.3    52  DC52       -0.3114
   1058  C5'      -18.5850  -23.1300  -20.5680 C.3    52  DC52        0.1811
   1059  C4'      -18.1180  -22.8740  -21.9900 C.3    52  DC52        0.1746
   1060  O4'      -19.0870  -23.3950  -22.9280 O.3    52  DC52       -0.3327
   1061  C3'      -17.8870  -21.4100  -22.3650 C.3    52  DC52        0.1558
   1062  O3'      -16.5510  -21.0880  -22.0370 O.3    52  DC52       -0.3138
   1063  C2'      -18.0050  -21.4630  -23.8730 C.3    52  DC52        0.0866
   1064  C1'      -18.9200  -22.6690  -24.1210 C.3    52  DC52        0.2106
   1065  N1       -20.2800  -22.1830  -24.4930 N.ar   52  DC52       -0.2556
   1066  C2       -20.4580  -21.5090  -25.7070 C.ar   52  DC52        0.3531
   1067  O2       -19.4960  -21.4230  -26.4900 O.2    52  DC52       -0.2443
   1068  N3       -21.6680  -20.9720  -25.9920 N.ar   52  DC52       -0.1739
   1069  C4       -22.6710  -21.0880  -25.1220 C.ar   52  DC52        0.1759
   1070  N4       -23.8460  -20.5430  -25.4460 N.pl3  52  DC52       -0.1070
   1071  C5       -22.5120  -21.7670  -23.8860 C.ar   52  DC52        0.0566
   1072  C6       -21.3150  -22.2960  -23.6090 C.ar   52  DC52        0.0849
   1073  P        -15.9330  -19.4870  -21.4830 P.3    53  DT53        0.2141
   1074  OP1      -14.6190  -19.4470  -20.8030 O.2    53  DT53       -0.5172
   1075  OP2      -17.1630  -19.0330  -20.7950 O.3    53  DT53       -0.4373
   1076  O5'      -15.8430  -18.5530  -22.7770 O.3    53  DT53       -0.3114
   1077  C5'      -14.8910  -18.8350  -23.7830 C.3    53  DT53        0.1811
   1078  C4'      -15.3050  -18.2010  -25.0820 C.3    53  DT53        0.1746
   1079  O4'      -16.5290  -18.8050  -25.5740 O.3    53  DT53       -0.3327
   1080  C3'      -15.6630  -16.7320  -24.9980 C.3    53  DT53        0.1558
   1081  O3'      -14.5320  -15.8890  -24.8940 O.3    53  DT53       -0.3138
   1082  C2'      -16.4790  -16.5330  -26.2680 C.3    53  DT53        0.0866
   1083  C1'      -17.2700  -17.8410  -26.2970 C.3    53  DT53        0.2106
   1084  N1       -18.5710  -17.5420  -25.5900 N.ar   53  DT53       -0.2559
   1085  C2       -19.5430  -16.7770  -26.2050 C.ar   53  DT53        0.3545
   1086  O2       -19.3540  -16.1760  -27.2480 O.2    53  DT53       -0.2443
   1087  N3       -20.7510  -16.7380  -25.5520 N.ar   53  DT53       -0.1533
   1088  C4       -21.0770  -17.3740  -24.3720 C.ar   53  DT53        0.2804
   1089  O4       -22.2080  -17.2450  -23.9080 O.2    53  DT53       -0.2654
   1090  C5       -20.0150  -18.1480  -23.7950 C.ar   53  DT53        0.0534
   1091  C6       -18.8300  -18.2030  -24.4090 C.ar   53  DT53        0.0824
   1092  C7       -20.2710  -18.8780  -22.5100 C.3    53  DT53        0.0377
   1093  P        -14.5760  -15.0220  -23.7580 P.3    54  DG54        0.2141
   1094  OP1      -13.2420  -14.3780  -23.5540 O.2    54  DG54       -0.5172
   1095  OP2      -15.4440  -15.5110  -22.6370 O.3    54  DG54       -0.4373
   1096  O5'      -15.4290  -13.9380  -24.5210 O.3    54  DG54       -0.3114
   1097  C5'      -14.6110  -13.2260  -25.3980 C.3    54  DG54        0.1811
   1098  C4'      -15.4660  -12.1380  -25.9620 C.3    54  DG54        0.1746
   1099  O4'      -16.7080  -12.6770  -26.4650 O.3    54  DG54       -0.3327
   1100  C3'      -15.9660  -11.3240  -24.8260 C.3    54  DG54        0.1558
   1101  O3'      -14.9300  -10.5070  -24.3530 O.3    54  DG54       -0.3138
   1102  C2'      -17.0440  -10.5770  -25.5240 C.3    54  DG54        0.0865
   1103  C1'      -17.6410  -11.6350  -26.4130 C.3    54  DG54        0.2094
   1104  N9       -18.8730  -12.3980  -25.9370 N.ar   54  DG54       -0.2713
   1105  C8       -18.9170  -13.5350  -25.1670 C.ar   54  DG54        0.1816
   1106  N7       -20.1210  -13.8390  -24.7650 N.ar   54  DG54       -0.2173
   1107  C5       -20.9220  -12.8480  -25.3020 C.ar   54  DG54        0.1748
   1108  C6       -22.3230  -12.6420  -25.2090 C.ar   54  DG54        0.3023
   1109  O6       -23.1600  -13.3280  -24.6090 O.2    54  DG54       -0.2633
   1110  N1       -22.7290  -11.5070  -25.9050 N.ar   54  DG54       -0.1709
   1111  C2       -21.8900  -10.6730  -26.6050 C.ar   54  DG54        0.2606
   1112  N2       -22.4670   -9.6290  -27.2140 N.pl3  54  DG54       -0.0859
   1113  N3       -20.5870  -10.8520  -26.6990 N.ar   54  DG54       -0.1918
   1114  C4       -20.1690  -11.9470  -26.0300 C.ar   54  DG54        0.1722
   1115  P        -15.3830   -9.8040  -23.1940 P.3    55  DC55        0.2141
   1116  OP1      -14.2670   -8.9200  -22.7840 O.2    55  DC55       -0.5172
   1117  OP2      -15.8580  -10.8770  -22.2940 O.3    55  DC55       -0.4373
   1118  O5'      -16.7020   -8.9420  -23.4960 O.3    55  DC55       -0.3114
   1119  C5'      -16.6940   -7.9000  -24.4650 C.3    55  DC55        0.1812
   1120  C4'      -18.0400   -7.2270  -24.6000 C.3    55  DC55        0.1775
   1121  O4'      -19.0060   -8.1210  -25.2120 O.3    55  DC55       -0.3326
   1122  C3'      -18.7160   -6.8000  -23.3080 C.3    55  DC55        0.1864
   1123  O3'      -18.2020   -5.5870  -22.8060 O.3    55  DC55       -0.2133
   1124  C2'      -20.1790   -6.6930  -23.7130 C.3    55  DC55        0.0895
   1125  C1'      -20.3010   -7.8430  -24.7150 C.3    55  DC55        0.2107
   1126  N1       -20.8970   -9.1020  -24.1610 N.ar   55  DC55       -0.2556
   1127  C2       -22.2830   -9.2080  -23.9910 C.ar   55  DC55        0.3531
   1128  O2       -22.9980   -8.2390  -24.2970 O.2    55  DC55       -0.2443
   1129  N3       -22.8010  -10.3580  -23.4990 N.ar   55  DC55       -0.1739
   1130  C4       -21.9940  -11.3720  -23.1840 C.ar   55  DC55        0.1759
   1131  N4       -22.5490  -12.4860  -22.7020 N.pl3  55  DC55       -0.1070
   1132  C5       -20.5870  -11.2850  -23.3490 C.ar   55  DC55        0.0566
   1133  C6       -20.0800  -10.1470  -23.8350 C.ar   55  DC55        0.0849
   1134  P        -18.2160   -5.4640  -21.3990 P.3    56  DC56        0.3939
   1135  OP1      -17.6550   -4.6900  -22.5350 O.3    56  DC56       -0.1496
   1136  OP2      -17.6330   -5.2930  -20.0480 O.3    56  DC56       -0.1425
   1137  O5'      -19.7630   -5.0780  -21.2640 O.3    56  DC56       -0.2926
   1138  C5'      -20.3210   -3.9950  -22.0270 C.3    56  DC56        0.1828
   1139  C4'      -21.8430   -3.9930  -21.9460 C.3    56  DC56        0.1747
   1140  O4'      -22.3830   -5.2180  -22.5210 O.3    56  DC56       -0.3327
   1141  C3'      -22.4720   -3.9260  -20.5570 C.3    56  DC56        0.1558
   1142  O3'      -22.5660   -2.5820  -20.0940 O.3    56  DC56       -0.3138
   1143  C2'      -23.8690   -4.4870  -20.8100 C.3    56  DC56        0.0866
   1144  C1'      -23.5780   -5.5850  -21.8360 C.3    56  DC56        0.2106
   1145  N1       -23.2740   -6.9090  -21.1270 N.ar   56  DC56       -0.2556
   1146  C2       -24.3580   -7.6480  -20.6380 C.ar   56  DC56        0.3531
   1147  O2       -25.5010   -7.1730  -20.7430 O.2    56  DC56       -0.2443
   1148  N3       -24.1290   -8.8550  -20.0670 N.ar   56  DC56       -0.1739
   1149  C4       -22.8840   -9.3240  -19.9750 C.ar   56  DC56        0.1759
   1150  N4       -22.7070  -10.5180  -19.4050 N.pl3  56  DC56       -0.1070
   1151  C5       -21.7730   -8.5910  -20.4640 C.ar   56  DC56        0.0566
   1152  C6       -22.0030   -7.4000  -21.0280 C.ar   56  DC56        0.0849
   1153  P        -22.4600   -2.1760  -18.3430 P.3    57  DC57        0.2141
   1154  OP1      -22.0170   -0.7720  -18.1750 O.2    57  DC57       -0.5172
   1155  OP2      -21.5510   -3.2960  -18.0130 O.3    57  DC57       -0.4373
   1156  O5'      -23.7640   -2.4660  -17.4620 O.3    57  DC57       -0.3114
   1157  C5'      -25.0040   -1.9280  -17.8960 C.3    57  DC57        0.1811
   1158  C4'      -26.1820   -2.6440  -17.2890 C.3    57  DC57        0.1746
   1159  O4'      -26.3750   -3.9380  -17.9180 O.3    57  DC57       -0.3327
   1160  C3'      -26.0640   -2.9940  -15.8190 C.3    57  DC57        0.1558
   1161  O3'      -26.2500   -1.8910  -14.9590 O.3    57  DC57       -0.3138
   1162  C2'      -27.1270   -4.0700  -15.6730 C.3    57  DC57        0.0866
   1163  C1'      -26.9250   -4.8390  -16.9770 C.3    57  DC57        0.2106
   1164  N1       -25.9340   -5.9050  -16.7310 N.ar   57  DC57       -0.2556
   1165  C2       -26.3520   -7.1020  -16.1380 C.ar   57  DC57        0.3531
   1166  O2       -27.5370   -7.2080  -15.7780 O.2    57  DC57       -0.2443
   1167  N3       -25.4570   -8.1050  -15.9720 N.ar   57  DC57       -0.1739
   1168  C4       -24.1950   -7.9460  -16.3730 C.ar   57  DC57        0.1759
   1169  N4       -23.3490   -8.9620  -16.1890 N.pl3  57  DC57       -0.1070
   1170  C5       -23.7510   -6.7410  -16.9760 C.ar   57  DC57        0.0566
   1171  C6       -24.6380   -5.7530  -17.1380 C.ar   57  DC57        0.0849
   1172  P        -25.1610   -1.7070  -13.9450 P.3    58  DC58        0.2141
   1173  OP1      -24.8520   -0.2610  -13.9420 O.3    58  DC58       -0.4373
   1174  OP2      -24.0170   -2.4690  -14.5210 O.2    58  DC58       -0.5172
   1175  O5'      -25.5350   -2.4270  -12.5300 O.3    58  DC58       -0.3114
   1176  C5'      -26.9650   -2.2490  -12.2790 C.3    58  DC58        0.1811
   1177  C4'      -27.4140   -3.4780  -11.5520 C.3    58  DC58        0.1746
   1178  O4'      -27.4410   -4.6300  -12.3380 O.3    58  DC58       -0.3327
   1179  C3'      -26.5930   -3.8890  -10.3210 C.3    58  DC58        0.1558
   1180  O3'      -26.8680   -3.0180   -9.2330 O.3    58  DC58       -0.3138
   1181  C2'      -27.2080   -5.2770  -10.0650 C.3    58  DC58        0.0866
   1182  C1'      -27.3100   -5.7700  -11.4570 C.3    58  DC58        0.2106
   1183  N1       -26.2000   -6.6930  -11.8280 N.ar   58  DC58       -0.2556
   1184  C2       -26.2000   -7.9860  -11.2920 C.ar   58  DC58        0.3531
   1185  O2       -27.1500   -8.3340  -10.5700 O.2    58  DC58       -0.2443
   1186  N3       -25.1670   -8.8160  -11.5730 N.ar   58  DC58       -0.1739
   1187  C4       -24.1680   -8.3980  -12.3510 C.ar   58  DC58        0.1759
   1188  N4       -23.1720   -9.2520  -12.6010 N.pl3  58  DC58       -0.1070
   1189  C5       -24.1500   -7.0920  -12.9040 C.ar   58  DC58        0.0566
   1190  C6       -25.1710   -6.2750  -12.6240 C.ar   58  DC58        0.0849
   1191  P        -25.6520   -2.7950   -8.1680 P.3    59  DC59        0.2141
   1192  OP1      -26.1610   -1.7530   -7.2530 O.3    59  DC59       -0.4373
   1193  OP2      -24.2010   -3.0180   -8.3310 O.2    59  DC59       -0.5172
   1194  O5'      -26.3360   -4.1600   -7.7580 O.3    59  DC59       -0.3114
   1195  C5'      -27.2540   -4.1750   -6.7170 C.3    59  DC59        0.1811
   1196  C4'      -27.1860   -5.5540   -6.1150 C.3    59  DC59        0.1746
   1197  O4'      -27.0140   -6.5740   -7.1260 O.3    59  DC59       -0.3327
   1198  C3'      -25.9790   -5.7710   -5.2540 C.3    59  DC59        0.1558
   1199  O3'      -26.2360   -5.0440   -4.1040 O.3    59  DC59       -0.3138
   1200  C2'      -26.2800   -7.2350   -5.0610 C.3    59  DC59        0.0866
   1201  C1'      -26.5020   -7.7190   -6.4870 C.3    59  DC59        0.2106
   1202  N1       -25.2170   -8.0380   -7.2450 N.ar   59  DC59       -0.2556
   1203  C2       -24.5880   -9.2790   -7.0920 C.ar   59  DC59        0.3531
   1204  O2       -25.0680  -10.0980   -6.2900 O.2    59  DC59       -0.2443
   1205  N3       -23.4780   -9.5500   -7.8200 N.ar   59  DC59       -0.1739
   1206  C4       -22.9970   -8.6390   -8.6680 C.ar   59  DC59        0.1759
   1207  N4       -21.9010   -8.9510   -9.3640 N.pl3  59  DC59       -0.1070
   1208  C5       -23.6200   -7.3760   -8.8370 C.ar   59  DC59        0.0566
   1209  C6       -24.7160   -7.1130   -8.1170 C.ar   59  DC59        0.0849
   1210  P        -25.0410   -4.8010   -3.0110 P.3    60  DA60        0.2141
   1211  OP1      -25.6750   -3.7130   -2.2820 O.3    60  DA60       -0.4373
   1212  OP2      -24.0380   -4.6600   -4.0610 O.2    60  DA60       -0.5172
   1213  O5'      -24.4820   -5.9930   -2.1580 O.3    60  DA60       -0.3114
   1214  C5'      -25.3640   -6.7300   -1.3600 C.3    60  DA60        0.1811
   1215  C4'      -24.6110   -7.9850   -0.9700 C.3    60  DA60        0.1746
   1216  O4'      -24.4570   -8.6450   -2.2240 O.3    60  DA60       -0.3327
   1217  C3'      -23.1530   -7.9210   -0.4920 C.3    60  DA60        0.1558
   1218  O3'      -22.9310   -7.6940    0.9360 O.3    60  DA60       -0.3138
   1219  C2'      -22.8060   -9.3540   -0.7360 C.3    60  DA60        0.0865
   1220  C1'      -23.3490   -9.5420   -2.1100 C.3    60  DA60        0.2094
   1221  N9       -22.4260   -9.2990   -3.1520 N.ar   60  DA60       -0.2714
   1222  C8       -22.4000   -8.1850   -3.9500 C.ar   60  DA60        0.1815
   1223  N7       -21.4760   -8.2220   -4.8810 N.ar   60  DA60       -0.2193
   1224  C5       -20.8510   -9.4430   -4.6790 C.ar   60  DA60        0.1518
   1225  C6       -19.7850  -10.0800   -5.3390 C.ar   60  DA60        0.1919
   1226  N6       -19.1370   -9.5510   -6.3790 N.pl3  60  DA60       -0.1054
   1227  N1       -19.4050  -11.2940   -4.8870 N.ar   60  DA60       -0.2040
   1228  C2       -20.0560  -11.8240   -3.8450 C.ar   60  DA60        0.2016
   1229  N3       -21.0710  -11.3230   -3.1440 N.ar   60  DA60       -0.2048
   1230  C4       -21.4240  -10.1160   -3.6170 C.ar   60  DA60        0.1691
   1231  P        -21.7470   -6.7460    1.5060 P.3    61  DC61        0.2141
   1232  OP1      -21.9260   -5.8010    2.6400 O.3    61  DC61       -0.4373
   1233  OP2      -21.4980   -6.2140    0.1380 O.2    61  DC61       -0.5172
   1234  O5'      -20.5550   -7.7470    1.8630 O.3    61  DC61       -0.3114
   1235  C5'      -20.6410   -8.6180    3.0050 C.3    61  DC61        0.1811
   1236  C4'      -19.8970   -9.9110    2.7460 C.3    61  DC61        0.1746
   1237  O4'      -20.2650  -10.4180    1.4350 O.3    61  DC61       -0.3327
   1238  C3'      -18.3770   -9.8690    2.6790 C.3    61  DC61        0.1558
   1239  O3'      -17.7920   -9.8680    3.9810 O.3    61  DC61       -0.3138
   1240  C2'      -18.0740  -11.1730    1.9500 C.3    61  DC61        0.0866
   1241  C1'      -19.2090  -11.2160    0.9270 C.3    61  DC61        0.2106
   1242  N1       -18.7710  -10.7090   -0.3480 N.ar   61  DC61       -0.2556
   1243  C2       -18.0900  -11.5510   -1.2330 C.ar   61  DC61        0.3531
   1244  O2       -17.9050  -12.7370   -0.9080 O.2    61  DC61       -0.2443
   1245  N3       -17.6520  -11.0520   -2.4140 N.ar   61  DC61       -0.1739
   1246  C4       -17.8730   -9.7730   -2.7200 C.ar   61  DC61        0.1759
   1247  N4       -17.4230   -9.3260   -3.8950 N.pl3  61  DC61       -0.1070
   1248  C5       -18.5610   -8.9030   -1.8370 C.ar   61  DC61        0.0566
   1249  C6       -18.9920   -9.4000   -0.6720 C.ar   61  DC61        0.0849
   1250  P        -16.2090   -9.5180    4.1810 P.3    62  DC62        0.2141
   1251  OP1      -16.6880  -10.1410    5.4530 O.3    62  DC62       -0.4373
   1252  OP2      -16.0870   -8.0560    4.0110 O.2    62  DC62       -0.5172
   1253  O5'      -14.8340  -10.2020    3.7990 O.3    62  DC62       -0.3114
   1254  C5'      -14.8320  -11.5660    4.1510 C.3    62  DC62        0.1811
   1255  C4'      -14.1600  -12.3760    3.0900 C.3    62  DC62        0.1746
   1256  O4'      -14.9780  -12.4650    1.9190 O.3    62  DC62       -0.3327
   1257  C3'      -12.8950  -11.7320    2.5720 C.3    62  DC62        0.1558
   1258  O3'      -11.8700  -11.8180    3.5430 O.3    62  DC62       -0.3138
   1259  C2'      -12.7080  -12.6510    1.3900 C.3    62  DC62        0.0866
   1260  C1'      -14.1230  -12.6100    0.8110 C.3    62  DC62        0.2106
   1261  N1       -14.3440  -11.6320   -0.1690 N.ar   62  DC62       -0.2556
   1262  C2       -13.8580  -11.7390   -1.4770 C.ar   62  DC62        0.3531
   1263  O2       -13.2450  -12.7700   -1.8040 O.2    62  DC62       -0.2443
   1264  N3       -14.0680  -10.7210   -2.3440 N.ar   62  DC62       -0.1739
   1265  C4       -14.7300   -9.6330   -1.9480 C.ar   62  DC62        0.1759
   1266  N4       -14.9130   -8.6550   -2.8380 N.pl3  62  DC62       -0.1070
   1267  C5       -15.2310   -9.5050   -0.6270 C.ar   62  DC62        0.0566
   1268  C6       -15.0210  -10.5130    0.2260 C.ar   62  DC62        0.0849
   1269  P        -10.4110  -10.9290    3.3200 P.3    63  DT63        0.2141
   1270  OP1       -9.5020  -11.0340    4.4850 O.3    63  DT63       -0.4373
   1271  OP2      -11.2980   -9.7550    3.1380 O.2    63  DT63       -0.5172
   1272  O5'       -9.5730  -11.0110    1.9640 O.3    63  DT63       -0.3114
   1273  C5'       -8.6690  -12.0920    1.8080 C.3    63  DT63        0.1811
   1274  C4'       -8.3790  -12.3210    0.3520 C.3    63  DT63        0.1746
   1275  O4'       -9.6250  -12.2240   -0.3750 O.3    63  DT63       -0.3327
   1276  C3'       -7.4720  -11.3080   -0.3220 C.3    63  DT63        0.1558
   1277  O3'       -6.1080  -11.6170   -0.1530 O.3    63  DT63       -0.3138
   1278  C2'       -7.8960  -11.4200   -1.7710 C.3    63  DT63        0.0866
   1279  C1'       -9.4000  -11.6340   -1.6310 C.3    63  DT63        0.2106
   1280  N1       -10.3100  -10.4470   -1.6770 N.ar   63  DT63       -0.2559
   1281  C2       -10.6630   -9.9900   -2.9320 C.ar   63  DT63        0.3545
   1282  O2       -10.2870  -10.5200   -3.9630 O.2    63  DT63       -0.2443
   1283  N3       -11.4770   -8.8830   -2.9400 N.ar   63  DT63       -0.1533
   1284  C4       -11.9620   -8.2020   -1.8430 C.ar   63  DT63        0.2804
   1285  O4       -12.6860   -7.2240   -2.0100 O.2    63  DT63       -0.2654
   1286  C5       -11.5500   -8.7370   -0.5760 C.ar   63  DT63        0.0534
   1287  C6       -10.7590   -9.8120   -0.5390 C.ar   63  DT63        0.0824
   1288  C7       -12.0250   -8.0650    0.6780 C.3    63  DT63        0.0377
   1289  P         -5.2780  -10.5180    0.2070 P.3    64  DA64        0.2141
   1290  OP1       -4.1920  -11.1590    0.9820 O.3    64  DA64       -0.4373
   1291  OP2       -6.1600   -9.5100    0.8390 O.2    64  DA64       -0.5172
   1292  O5'       -4.6400   -9.7540   -1.0440 O.3    64  DA64       -0.3114
   1293  C5'       -4.3930  -10.4490   -2.2570 C.3    64  DA64        0.1811
   1294  C4'       -4.5040   -9.5270   -3.4460 C.3    64  DA64        0.1746
   1295  O4'       -5.8900   -9.3750   -3.8480 O.3    64  DA64       -0.3327
   1296  C3'       -4.0180   -8.1030   -3.2240 C.3    64  DA64        0.1558
   1297  O3'       -2.6070   -7.9930   -3.3210 O.3    64  DA64       -0.3138
   1298  C2'       -4.7720   -7.3140   -4.2900 C.3    64  DA64        0.0865
   1299  C1'       -6.0910   -8.0830   -4.3860 C.3    64  DA64        0.2094
   1300  N9        -7.1460   -7.5070   -3.6600 N.ar   64  DA64       -0.2714
   1301  C8        -7.6030   -7.8470   -2.4130 C.ar   64  DA64        0.1815
   1302  N7        -8.5200   -7.0340   -1.9460 N.ar   64  DA64       -0.2193
   1303  C5        -8.6770   -6.0960   -2.9540 C.ar   64  DA64        0.1518
   1304  C6        -9.5050   -4.9650   -3.0740 C.ar   64  DA64        0.1919
   1305  N6       -10.3660   -4.5760   -2.1310 N.pl3  64  DA64       -0.1054
   1306  N1        -9.4150   -4.2410   -4.2100 N.ar   64  DA64       -0.2040
   1307  C2        -8.5530   -4.6330   -5.1550 C.ar   64  DA64        0.2016
   1308  N3        -7.7240   -5.6750   -5.1580 N.ar   64  DA64       -0.2048
   1309  C4        -7.8370   -6.3730   -4.0150 C.ar   64  DA64        0.1691
   1310  P         -1.3880   -6.3480   -2.7050 P.3    65  DT65        0.2141
   1311  OP1       -0.0140   -6.1100   -3.2110 O.2    65  DT65       -0.5172
   1312  OP2       -1.6040   -6.6210   -1.2670 O.3    65  DT65       -0.4373
   1313  O5'       -2.2950   -5.1170   -3.1390 O.3    65  DT65       -0.3114
   1314  C5'       -2.1240   -4.5380   -4.4210 C.3    65  DT65        0.1811
   1315  C4'       -2.9240   -3.2790   -4.5310 C.3    65  DT65        0.1746
   1316  O4'       -4.3280   -3.6080   -4.4810 O.3    65  DT65       -0.3327
   1317  C3'       -2.7380   -2.2760   -3.4050 C.3    65  DT65        0.1558
   1318  O3'       -1.5520   -1.5020   -3.5920 O.3    65  DT65       -0.3138
   1319  C2'       -4.0200   -1.4540   -3.4970 C.3    65  DT65        0.0866
   1320  C1'       -5.0400   -2.5290   -3.8960 C.3    65  DT65        0.2106
   1321  N1        -5.8270   -3.0690   -2.7130 N.ar   65  DT65       -0.2559
   1322  C2        -6.8230   -2.2670   -2.1890 C.ar   65  DT65        0.3545
   1323  O2        -7.1530   -1.2060   -2.6890 O.2    65  DT65       -0.2443
   1324  N3        -7.4220   -2.7520   -1.0530 N.ar   65  DT65       -0.1533
   1325  C4        -7.1320   -3.9330   -0.4020 C.ar   65  DT65        0.2804
   1326  O4        -7.7590   -4.2360    0.6110 O.2    65  DT65       -0.2654
   1327  C5        -6.0860   -4.7090   -1.0060 C.ar   65  DT65        0.0534
   1328  C6        -5.4870   -4.2610   -2.1120 C.ar   65  DT65        0.0824
   1329  C7        -5.6960   -6.0110   -0.3710 C.3    65  DT65        0.0377
   1330  P         -0.5870   -1.0610   -2.3210 P.3    66  DG66        0.2141
   1331  OP1        0.8200   -0.6100   -2.3850 O.2    66  DG66       -0.5172
   1332  OP2       -0.9120   -2.2940   -1.5780 O.3    66  DG66       -0.4373
   1333  O5'       -1.4770    0.0710   -1.6530 O.3    66  DG66       -0.3114
   1334  C5'       -1.4640    1.3860   -2.1750 C.3    66  DG66        0.1811
   1335  C4'       -2.2990    2.2940   -1.3170 C.3    66  DG66        0.1746
   1336  O4'       -3.7140    2.0430   -1.5310 O.3    66  DG66       -0.3327
   1337  C3'       -2.1090    2.1530    0.1820 C.3    66  DG66        0.1558
   1338  O3'       -0.9540    2.8480    0.6610 O.3    66  DG66       -0.3138
   1339  C2'       -3.3980    2.7620    0.7090 C.3    66  DG66        0.0865
   1340  C1'       -4.4250    2.3070   -0.3380 C.3    66  DG66        0.2094
   1341  N9        -5.2040    1.0270    0.1100 N.ar   66  DG66       -0.2713
   1342  C8        -5.1230   -0.3030   -0.2240 C.ar   66  DG66        0.1816
   1343  N7        -5.9890   -1.0470    0.4090 N.ar   66  DG66       -0.2173
   1344  C5        -6.6860   -0.1580    1.2080 C.ar   66  DG66        0.1748
   1345  C6        -7.7480   -0.3760    2.1220 C.ar   66  DG66        0.3023
   1346  O6        -8.3010   -1.4440    2.4130 O.2    66  DG66       -0.2633
   1347  N1        -8.1640    0.8070    2.7270 N.ar   66  DG66       -0.1709
   1348  C2        -7.6240    2.0460    2.4810 C.ar   66  DG66        0.2606
   1349  N2        -8.1590    3.0700    3.1610 N.pl3  66  DG66       -0.0859
   1350  N3        -6.6370    2.2640    1.6350 N.ar   66  DG66       -0.1918
   1351  C4        -6.2150    1.1300    1.0370 C.ar   66  DG66        0.1722
   1352  P         -0.1820    2.3310    2.0100 P.3    67  DC67        0.2141
   1353  OP1        1.1430    2.9940    1.9790 O.2    67  DC67       -0.5172
   1354  OP2       -0.2580    0.8520    1.9940 O.3    67  DC67       -0.4373
   1355  O5'       -1.0010    2.8710    3.2690 O.3    67  DC67       -0.3114
   1356  C5'       -1.0710    4.2670    3.5020 C.3    67  DC67        0.1811
   1357  C4'       -2.0630    4.5890    4.6030 C.3    67  DC67        0.1746
   1358  O4'       -3.4100    4.3490    4.1260 O.3    67  DC67       -0.3327
   1359  C3'       -1.9930    3.7270    5.8540 C.3    67  DC67        0.1558
   1360  O3'       -0.8700    4.0500    6.6830 O.3    67  DC67       -0.3138
   1361  C2'       -3.3340    4.1110    6.4650 C.3    67  DC67        0.0866
   1362  C1'       -4.2280    4.0120    5.2290 C.3    67  DC67        0.2106
   1363  N1        -4.7440    2.6760    5.0680 N.ar   67  DC67       -0.2556
   1364  C2        -5.9080    2.2680    5.7300 C.ar   67  DC67        0.3531
   1365  O2        -6.4380    3.0460    6.5410 O.2    67  DC67       -0.2443
   1366  N3        -6.4190    1.0410    5.4690 N.ar   67  DC67       -0.1739
   1367  C4        -5.8150    0.2390    4.5910 C.ar   67  DC67        0.1759
   1368  N4        -6.3560   -0.9610    4.3660 N.pl3  67  DC67       -0.1070
   1369  C5        -4.6350    0.6340    3.9100 C.ar   67  DC67        0.0566
   1370  C6        -4.1330    1.8460    4.1710 C.ar   67  DC67        0.0849
   1371  P          0.1620    2.8340    7.1340 P.3    68  DG68        0.2141
   1372  OP1        0.8930    3.9220    7.8140 O.3    68  DG68       -0.4373
   1373  OP2        0.8480    1.9760    6.1380 O.2    68  DG68       -0.5172
   1374  O5'       -0.4960    1.8850    8.2420 O.3    68  DG68       -0.3114
   1375  C5'       -1.2100    2.4520    9.3330 C.3    68  DG68        0.1811
   1376  C4'       -1.6840    1.3860   10.2980 C.3    68  DG68        0.1746
   1377  O4'       -2.5140    0.4310    9.6010 O.3    68  DG68       -0.3327
   1378  C3'       -0.5910    0.5210   10.8940 C.3    68  DG68        0.1558
   1379  O3'        0.0590    1.1630   11.9800 O.3    68  DG68       -0.3138
   1380  C2'       -1.3860   -0.6850   11.3510 C.3    68  DG68        0.0865
   1381  C1'       -2.3240   -0.8600   10.1560 C.3    68  DG68        0.2094
   1382  N9        -1.7500   -1.7810    9.1420 N.ar   68  DG68       -0.2713
   1383  C8        -1.0930   -1.4800    7.9730 C.ar   68  DG68        0.1816
   1384  N7        -0.6190   -2.5320    7.3630 N.ar   68  DG68       -0.2173
   1385  C5        -0.9850   -3.5920    8.1720 C.ar   68  DG68        0.1748
   1386  C6        -0.7500   -4.9840    8.0310 C.ar   68  DG68        0.3023
   1387  O6        -0.1490   -5.5720    7.1240 O.2    68  DG68       -0.2633
   1388  N1        -1.2950   -5.7120    9.0850 N.ar   68  DG68       -0.1709
   1389  C2        -1.9810   -5.1670   10.1440 C.ar   68  DG68        0.2606
   1390  N2        -2.4320   -6.0300   11.0640 N.pl3  68  DG68       -0.0859
   1391  N3        -2.2050   -3.8760   10.2880 N.ar   68  DG68       -0.1918
   1392  C4        -1.6850   -3.1480    9.2770 C.ar   68  DG68        0.1722
   1393  P          1.3610    0.7670   12.2480 P.3    69  DT69        0.2141
   1394  OP1        1.9100    1.5570   13.3720 O.3    69  DT69       -0.4373
   1395  OP2        1.9300    0.8900   10.8870 O.2    69  DT69       -0.5172
   1396  O5'        1.5230   -0.7840   12.5840 O.3    69  DT69       -0.3114
   1397  C5'        1.0400   -1.2570   13.8270 C.3    69  DT69        0.1811
   1398  C4'        1.3510   -2.7180   13.9780 C.3    69  DT69        0.1746
   1399  O4'        0.6280   -3.4780   12.9780 O.3    69  DT69       -0.3327
   1400  C3'        2.8010   -3.0840   13.7310 C.3    69  DT69        0.1558
   1401  O3'        3.6310   -2.7890   14.8420 O.3    69  DT69       -0.3138
   1402  C2'        2.6960   -4.5640   13.3830 C.3    69  DT69        0.0866
   1403  C1'        1.4030   -4.5790   12.5630 C.3    69  DT69        0.2106
   1404  N1         1.6380   -4.4250   11.1060 N.ar   69  DT69       -0.2559
   1405  C2         2.0540   -5.5550   10.4280 C.ar   69  DT69        0.3545
   1406  O2         2.1410   -6.6510   10.9530 O.2    69  DT69       -0.2443
   1407  N3         2.3680   -5.3550    9.1050 N.ar   69  DT69       -0.1533
   1408  C4         2.3080   -4.1660    8.4090 C.ar   69  DT69        0.2804
   1409  O4         2.6210   -4.1440    7.2210 O.2    69  DT69       -0.2654
   1410  C5         1.8680   -3.0390    9.1830 C.ar   69  DT69        0.0534
   1411  C6         1.5570   -3.2050   10.4710 C.ar   69  DT69        0.0824
   1412  C7         1.7700   -1.6990    8.5150 C.3    69  DT69        0.0377
   1413  P          5.1670   -2.6990   14.7750 P.3    70  DG70        0.2141
   1414  OP1        5.8940   -2.3900   16.0240 O.3    70  DG70       -0.4373
   1415  OP2        4.7750   -1.6010   13.8560 O.2    70  DG70       -0.5172
   1416  O5'        6.0070   -3.7440   13.9280 O.3    70  DG70       -0.3114
   1417  C5'        6.3370   -4.9930   14.4950 C.3    70  DG70        0.1811
   1418  C4'        7.0050   -5.8640   13.4760 C.3    70  DG70        0.1746
   1419  O4'        6.0690   -6.1720   12.4110 O.3    70  DG70       -0.3327
   1420  C3'        8.2110   -5.2990   12.7490 C.3    70  DG70        0.1558
   1421  O3'        9.4100   -5.3880   13.5050 O.3    70  DG70       -0.3138
   1422  C2'        8.2730   -6.2110   11.5380 C.3    70  DG70        0.0865
   1423  C1'        6.7910   -6.4030   11.2200 C.3    70  DG70        0.2094
   1424  N9         6.3280   -5.4500   10.1680 N.ar   70  DG70       -0.2713
   1425  C8         5.4570   -4.3950   10.2930 C.ar   70  DG70        0.1816
   1426  N7         5.2600   -3.7540    9.1730 N.ar   70  DG70       -0.2173
   1427  C5         6.0420   -4.4250    8.2520 C.ar   70  DG70        0.1748
   1428  C6         6.2410   -4.1920    6.8660 C.ar   70  DG70        0.3023
   1429  O6         5.7400   -3.3090    6.1580 O.2    70  DG70       -0.2633
   1430  N1         7.1230   -5.1110    6.3050 N.ar   70  DG70       -0.1709
   1431  C2         7.7370   -6.1300    6.9940 C.ar   70  DG70        0.2606
   1432  N2         8.5540   -6.9170    6.2800 N.pl3  70  DG70       -0.0859
   1433  N3         7.5620   -6.3590    8.2800 N.ar   70  DG70       -0.1918
   1434  C4         6.7110   -5.4770    8.8470 C.ar   70  DG70        0.1722
   1435  P         10.6050   -4.4390   13.1230 P.3    71  DC71        0.2141
   1436  OP1       11.9800   -4.2570   13.6490 O.3    71  DC71       -0.4373
   1437  OP2        9.8550   -3.2040   12.7940 O.2    71  DC71       -0.5172
   1438  O5'       10.6830   -5.4310   11.8780 O.3    71  DC71       -0.3114
   1439  C5'       11.1560   -6.7690   12.0300 C.3    71  DC71        0.1811
   1440  C4'       11.6000   -7.3140   10.6930 C.3    71  DC71        0.1746
   1441  O4'       10.4820   -7.2320    9.7710 O.3    71  DC71       -0.3327
   1442  C3'       12.6770   -6.4890   10.0170 C.3    71  DC71        0.1558
   1443  O3'       13.9900   -6.8120   10.4510 O.3    71  DC71       -0.3138
   1444  C2'       12.4630   -6.8150    8.5560 C.3    71  DC71        0.0866
   1445  C1'       10.9380   -6.8160    8.4960 C.3    71  DC71        0.2106
   1446  N1        10.5040   -5.3880    8.1190 N.ar   71  DC71       -0.2556
   1447  C2        10.4800   -5.0430    6.7630 C.ar   71  DC71        0.3531
   1448  O2        10.9250   -5.8540    5.9320 O.2    71  DC71       -0.2443
   1449  N3         9.9750   -3.8410    6.3960 N.ar   71  DC71       -0.1739
   1450  C4         9.5090   -3.0030    7.3230 C.ar   71  DC71        0.1759
   1451  N4         9.0200   -1.8290    6.9150 N.pl3  71  DC71       -0.1070
   1452  C5         9.5240   -3.3330    8.7020 C.ar   71  DC71        0.0566
   1453  C6        10.0240   -4.5210    9.0600 C.ar   71  DC71        0.0849
   1454  P         15.1300   -5.4200   11.0640 P.3    72  DT72        0.2141
   1455  OP1       16.0560   -5.2950   12.2120 O.3    72  DT72       -0.4373
   1456  OP2       14.7530   -4.1950   10.3230 O.2    72  DT72       -0.5172
   1457  O5'       15.6960   -6.4900   10.0160 O.3    72  DT72       -0.3114
   1458  C5'       16.7220   -6.0880    9.1360 C.3    72  DT72        0.1811
   1459  C4'       16.3070   -6.1340    7.6750 C.3    72  DT72        0.1746
   1460  O4'       14.8740   -6.0600    7.4690 O.3    72  DT72       -0.3327
   1461  C3'       16.7640   -4.9570    6.8310 C.3    72  DT72        0.1558
   1462  O3'       18.1710   -4.9110    6.7100 O.3    72  DT72       -0.3138
   1463  C2'       15.9990   -5.2630    5.5440 C.3    72  DT72        0.0866
   1464  C1'       14.6350   -5.4690    6.1950 C.3    72  DT72        0.2106
   1465  N1        14.0990   -4.0130    6.2560 N.ar   72  DT72       -0.2559
   1466  C2        13.6630   -3.2990    5.1560 C.ar   72  DT72        0.3545
   1467  O2        13.9430   -3.6080    4.0110 O.2    72  DT72       -0.2443
   1468  N3        12.8850   -2.2050    5.4440 N.ar   72  DT72       -0.1533
   1469  C4        12.5070   -1.7610    6.6950 C.ar   72  DT72        0.2804
   1470  O4        11.8020   -0.7600    6.7940 O.2    72  DT72       -0.2654
   1471  C5        13.0000   -2.5540    7.7860 C.ar   72  DT72        0.0534
   1472  C6        13.7590   -3.6240    7.5340 C.ar   72  DT72        0.0824
   1473  C7        12.6440   -2.1520    9.1870 C.3    72  DT72        0.0377
   1474  P         18.7320   -3.9630    7.3730 P.3    73  DA73        0.2141
   1475  OP1       20.0740   -4.2580    7.9270 O.2    73  DA73       -0.5172
   1476  OP2       17.6700   -3.4640    8.2690 O.3    73  DA73       -0.4373
   1477  O5'       18.8730   -2.9230    6.1700 O.3    73  DA73       -0.3114
   1478  C5'       19.8760   -3.1110    5.1600 C.3    73  DA73        0.1811
   1479  C4'       19.5480   -2.3040    3.9370 C.3    73  DA73        0.1746
   1480  O4'       18.2150   -2.6400    3.4890 O.3    73  DA73       -0.3327
   1481  C3'       19.5200   -0.7950    4.1130 C.3    73  DA73        0.1558
   1482  O3'       20.8470   -0.2910    4.0100 O.3    73  DA73       -0.3138
   1483  C2'       18.6410   -0.3610    2.9490 C.3    73  DA73        0.0865
   1484  C1'       17.6130   -1.4950    2.9100 C.3    73  DA73        0.2094
   1485  N9        16.3720   -1.2040    3.6590 N.ar   73  DA73       -0.2714
   1486  C8        16.0120   -1.6730    4.8950 C.ar   73  DA73        0.1815
   1487  N7        14.8380   -1.2490    5.3000 N.ar   73  DA73       -0.2193
   1488  C5        14.3970   -0.4480    4.2590 C.ar   73  DA73        0.1518
   1489  C6        13.2190    0.2960    4.0710 C.ar   73  DA73        0.1919
   1490  N6        12.2300    0.3530    4.9660 N.pl3  73  DA73       -0.1054
   1491  N1        13.0920    0.9880    2.9190 N.ar   73  DA73       -0.2040
   1492  C2        14.0840    0.9300    2.0220 C.ar   73  DA73        0.2016
   1493  N3        15.2360    0.2670    2.0850 N.ar   73  DA73       -0.2048
   1494  C4        15.3320   -0.4090    3.2420 C.ar   73  DA73        0.1691
   1495  P         21.2760    1.0040    4.8100 P.3    74  DC74        0.2141
   1496  OP1       22.7410    0.9230    4.6360 O.2    74  DC74       -0.5172
   1497  OP2       20.6480    1.0870    6.1410 O.3    74  DC74       -0.4373
   1498  O5'       20.8330    2.2710    3.9760 O.3    74  DC74       -0.3114
   1499  C5'       21.3750    2.4440    2.7010 C.3    74  DC74        0.1811
   1500  C4'       20.3720    3.2670    1.9490 C.3    74  DC74        0.1746
   1501  O4'       19.0830    2.6040    1.9140 O.3    74  DC74       -0.3327
   1502  C3'       20.0450    4.6030    2.6040 C.3    74  DC74        0.1558
   1503  O3'       21.1880    5.4580    2.5200 O.3    74  DC74       -0.3138
   1504  C2'       18.8620    4.9600    1.7220 C.3    74  DC74        0.0866
   1505  C1'       18.1110    3.6170    1.7570 C.3    74  DC74        0.2106
   1506  N1        17.1570    3.3880    2.9050 N.ar   74  DC74       -0.2556
   1507  C2        15.8500    3.8850    2.8490 C.ar   74  DC74        0.3531
   1508  O2        15.4860    4.4950    1.8290 O.2    74  DC74       -0.2443
   1509  N3        15.0230    3.6890    3.9040 N.ar   74  DC74       -0.1739
   1510  C4        15.4580    3.0290    4.9780 C.ar   74  DC74        0.1759
   1511  N4        14.6080    2.8600    5.9930 N.pl3  74  DC74       -0.1070
   1512  C5        16.7790    2.5180    5.0550 C.ar   74  DC74        0.0566
   1513  C6        17.5920    2.7140    4.0110 C.ar   74  DC74        0.0849
   1514  P         21.2880    6.8840    3.2820 P.3    75  DC75        0.2141
   1515  OP1       22.4800    7.7410    3.0170 O.2    75  DC75       -0.5172
   1516  OP2       21.1090    6.2830    4.6310 O.3    75  DC75       -0.4373
   1517  O5'       20.0160    7.7670    2.9430 O.3    75  DC75       -0.3114
   1518  C5'       19.9450    8.4680    1.7160 C.3    75  DC75        0.1811
   1519  C4'       18.7070    9.3030    1.6900 C.3    75  DC75        0.1746
   1520  O4'       17.5530    8.4510    1.4780 O.3    75  DC75       -0.3327
   1521  C3'       18.4200   10.0290    2.9890 C.3    75  DC75        0.1558
   1522  O3'       19.1990   11.2170    3.1210 O.3    75  DC75       -0.3138
   1523  C2'       16.9070   10.2300    2.9270 C.3    75  DC75        0.0866
   1524  C1'       16.4550    8.9580    2.2100 C.3    75  DC75        0.2106
   1525  N1        15.9100    7.9380    3.1880 N.ar   75  DC75       -0.2556
   1526  C2        14.5710    8.0780    3.5690 C.ar   75  DC75        0.3531
   1527  O2        13.8580    8.8930    2.9590 O.2    75  DC75       -0.2443
   1528  N3        14.0930    7.3250    4.5890 N.ar   75  DC75       -0.1739
   1529  C4        14.8960    6.4640    5.2160 C.ar   75  DC75        0.1759
   1530  N4        14.3800    5.7440    6.2150 N.pl3  75  DC75       -0.1070
   1531  C5        16.2560    6.3070    4.8450 C.ar   75  DC75        0.0566
   1532  C6        16.7240    7.0520    3.8380 C.ar   75  DC75        0.0849
   1533  P         18.9160   12.2220    4.3600 P.3    76  DG76        0.2141
   1534  OP1       19.7580   13.3940    4.0310 O.2    76  DG76       -0.5172
   1535  OP2       19.1260   11.4640    5.6180 O.3    76  DG76       -0.4373
   1536  O5'       17.3810   12.6900    4.4310 O.3    76  DG76       -0.3114
   1537  C5'       16.9150   13.8560    3.7560 C.3    76  DG76        0.1812
   1538  C4'       15.4370   14.0960    3.9710 C.3    76  DG76        0.1775
   1539  O4'       14.7000   12.8750    3.7130 O.3    76  DG76       -0.3326
   1540  C3'       15.0120   14.4980    5.3740 C.3    76  DG76        0.1864
   1541  O3'       15.1570   15.8910    5.5920 O.3    76  DG76       -0.2133
   1542  C2'       13.5630   14.0210    5.4410 C.3    76  DG76        0.0894
   1543  C1'       13.6160   12.7480    4.6070 C.3    76  DG76        0.2095
   1544  N9        13.8530   11.5080    5.3950 N.ar   76  DG76       -0.2713
   1545  C8        15.0150   10.7950    5.5580 C.ar   76  DG76        0.1816
   1546  N7        14.8830    9.7680    6.3530 N.ar   76  DG76       -0.2173
   1547  C5        13.5550    9.8020    6.7380 C.ar   76  DG76        0.1748
   1548  C6        12.8210    8.9440    7.5970 C.ar   76  DG76        0.3023
   1549  O6        13.2230    7.9460    8.2090 O.2    76  DG76       -0.2633
   1550  N1        11.4920    9.3400    7.7170 N.ar   76  DG76       -0.1709
   1551  C2        10.9380   10.4290    7.0860 C.ar   76  DG76        0.2606
   1552  N2         9.6380   10.6510    7.3240 N.pl3  76  DG76       -0.0859
   1553  N3        11.6080   11.2350    6.2860 N.ar   76  DG76       -0.1918
   1554  C4        12.9010   10.8700    6.1560 C.ar   76  DG76        0.1722
   1555  P         15.9690   16.5820    7.0280 P.3    77  DT77        0.3939
   1556  OP1       15.6230   17.5140    5.9110 O.3    77  DT77       -0.1496
   1557  OP2       17.3390   16.4640    7.5670 O.3    77  DT77       -0.1425
   1558  O5'       14.9650   16.8660    8.2180 O.3    77  DT77       -0.2926
   1559  C5'       13.6860   17.2000    7.7330 C.3    77  DT77        0.1828
   1560  C4'       12.6270   16.5640    8.5740 C.3    77  DT77        0.1747
   1561  O4'       12.5720   15.1520    8.3460 O.3    77  DT77       -0.3327
   1562  C3'       12.9170   16.6580   10.0540 C.3    77  DT77        0.1558
   1563  O3'       12.7330   17.9860   10.5040 O.3    77  DT77       -0.3138
   1564  C2'       11.8410   15.6970   10.4990 C.3    77  DT77        0.0866
   1565  C1'       12.1130   14.5460    9.5300 C.3    77  DT77        0.2106
   1566  N1        12.9600   13.4920    9.8940 N.ar   77  DT77       -0.2559
   1567  C2        12.6090   12.5330   10.8250 C.ar   77  DT77        0.3545
   1568  O2        11.5620   12.5640   11.4480 O.2    77  DT77       -0.2443
   1569  N3        13.5320   11.5320   11.0040 N.ar   77  DT77       -0.1533
   1570  C4        14.7440   11.3960   10.3590 C.ar   77  DT77        0.2804
   1571  O4        15.4670   10.4390   10.6260 O.2    77  DT77       -0.2654
   1572  C5        15.0370   12.4310    9.4080 C.ar   77  DT77        0.0534
   1573  C6        14.1570   13.4170    9.2150 C.ar   77  DT77        0.0824
   1574  C7        16.3330   12.3720    8.6550 C.3    77  DT77        0.0377
   1575  P         13.3020   18.6080   11.9130 P.3    78  DG78        0.2141
   1576  OP1       12.4670   19.6310   12.6130 O.3    78  DG78       -0.4373
   1577  OP2       14.7830   18.7230   11.9060 O.2    78  DG78       -0.5172
   1578  O5'       12.9600   17.1760   12.4980 O.3    78  DG78       -0.3114
   1579  C5'       12.4570   17.0330   13.7960 C.3    78  DG78        0.1811
   1580  C4'       12.9650   15.7590   14.3850 C.3    78  DG78        0.1746
   1581  O4'       13.3870   14.8870   13.3130 O.3    78  DG78       -0.3327
   1582  C3'       14.2390   15.8630   15.1680 C.3    78  DG78        0.1558
   1583  O3'       13.9880   16.4240   16.4040 O.3    78  DG78       -0.3138
   1584  C2'       14.7150   14.4310   15.1950 C.3    78  DG78        0.0865
   1585  C1'       14.4330   14.0410   13.7620 C.3    78  DG78        0.2094
   1586  N9        15.5860   14.2180   13.0650 N.ar   78  DG78       -0.2713
   1587  C8        15.5810   15.0210   11.9510 C.ar   78  DG78        0.1816
   1588  N7        16.6970   14.9750   11.2770 N.ar   78  DG78       -0.2173
   1589  C5        17.4880   14.0870   11.9830 C.ar   78  DG78        0.1748
   1590  C6        18.8100   13.6330   11.7400 C.ar   78  DG78        0.3023
   1591  O6        19.5670   13.9430   10.8120 O.2    78  DG78       -0.2633
   1592  N1        19.2370   12.7310   12.7100 N.ar   78  DG78       -0.1709
   1593  C2        18.4830   12.3160   13.7820 C.ar   78  DG78        0.2606
   1594  N2        19.0660   11.4400   14.6100 N.pl3  78  DG78       -0.0859
   1595  N3        17.2540   12.7300   14.0210 N.ar   78  DG78       -0.1918
   1596  C4        16.8190   13.6080   13.0920 C.ar   78  DG78        0.1722
   1597  P         14.7490   17.5930   16.6970 P.3    79  DA79        0.2141
   1598  OP1       14.4020   18.3160   17.9310 O.3    79  DA79       -0.4373
   1599  OP2       15.4460   18.2560   15.5750 O.2    79  DA79       -0.5172
   1600  O5'       15.6070   16.3150   17.0620 O.3    79  DA79       -0.3114
   1601  C5'       15.4150   15.6050   18.2630 C.3    79  DA79        0.1811
   1602  C4'       16.6950   14.8830   18.5530 C.3    79  DA79        0.1767
   1603  O4'       16.9680   13.9900   17.4610 O.3    79  DA79       -0.3327
   1604  C3'       17.9140   15.7940   18.5700 C.3    79  DA79        0.2208
   1605  O3'       18.0040   16.5030   19.7870 O.3    79  DA79       -0.0346
   1606  C2'       18.9950   14.7490   18.3800 C.3    79  DA79        0.0586
   1607  C1'       18.3740   13.9500   17.2490 C.3    79  DA79        0.2070
   1608  N9        18.6820   14.4390   15.9190 N.ar   79  DA79       -0.2715
   1609  C8        18.0010   15.2430   15.0430 C.ar   79  DA79        0.1815
   1610  N7        18.6950   15.5750   13.9800 N.ar   79  DA79       -0.2193
   1611  C5        19.9160   14.9480   14.1720 C.ar   79  DA79        0.1518
   1612  C6        21.0900   14.9070   13.4000 C.ar   79  DA79        0.1919
   1613  N6        21.2270   15.5350   12.2300 N.pl3  79  DA79       -0.1054
   1614  N1        22.1290   14.1900   13.8770 N.ar   79  DA79       -0.2040
   1615  C2        21.9900   13.5600   15.0500 C.ar   79  DA79        0.2016
   1616  N3        20.9380   13.5230   15.8650 N.ar   79  DA79       -0.2048
   1617  C4        19.9230   14.2460   15.3620 C.ar   79  DA79        0.1691
   1618  P         18.6540   18.1090   19.0960 P.3    80  DA80        0.2954
   1619  OP1       18.4500   16.6770   19.4430 O.3    80  DA80       -0.1862
   1620  OP2       18.1430   19.1680   20.0080 O.3    80  DA80       -0.1680
   1621  O5'       20.2080   18.3810   18.8610 O.3    80  DA80       -0.3089
   1622  C5'       21.1480   18.0550   19.8720 C.3    80  DA80        0.1808
   1623  C4'       22.5460   17.9840   19.3050 C.3    80  DA80        0.1705
   1624  O4'       23.0860   19.3290   19.1640 O.3    80  DA80       -0.3729
   1625  C3'       23.5090   17.2890   20.2520 C.3    80  DA80        0.1661
   1626  O3'       23.4610   15.8800   20.0900 O.3    80  DA80       -0.2225
   1627  C2'       24.8500   17.9220   19.9060 C.3    80  DA80        0.0295
   1628  C1'       24.4300   19.3660   19.6260 C.3    80  DA80        0.0832
   1629  N9        21.8460   18.0720   16.0080 N.2    80  DA80       -0.0102
   1630  C8        20.5030   18.0260   16.2740 C.2    80  DA80        0.3354
   1631  N7        19.7510   18.0000   15.1980 N.2    80  DA80       -0.2028
   1632  C5        20.6640   18.0330   14.1560 C.3    80  DA80        0.3315
   1633  C6        20.5050   18.0270   12.7590 C.2    80  DA80        0.4301
   1634  N6        19.3170   17.9840   12.1500 N.pl3  80  DA80        0.2140
   1635  N1        21.6210   18.0670   12.0010 N.2    80  DA80        0.0200
   1636  C2        22.8110   18.1090   12.6110 C.2    80  DA80        0.4720
   1637  N3        23.0880   18.1180   13.9130 N.2    80  DA80        0.0177
   1638  C4        21.9580   18.0780   14.6390 C.2    80  DA80        0.3923
@<TRIPOS>BOND
     1   952   951    2
     2   972   971    2
     3   951   953    2
     4   951   954    1
     5   940   939    1
     6   973   971    1
     7   971   959    1
     8   971   974    1
     9   955   954    1
    10   955   956    1
    11   959   958    1
    12   939   937    1
    13   939   941    1
    14   937   936    1
    15   937   938    1
    16   936   935    1
    17   956   958    1
    18   956   957    1
    19   933   932    2
    20   974   975    1
    21   958   960    1
    22   941   942    1
    23   975   976    1
    24   935   932    1
    25   938   942    1
    26   932   919    1
    27   932   934    1
    28   990   988    1
    29   942   943    1
    30   957   961    1
    31   970   968    1
    32   960   961    1
    33   992   991    2
    34   969   968   ar
    35   969   962   ar
    36   919   918    1
    37   976   978    1
    38   976   977    1
    39   979   991    1
    40   979   978    1
    41   991   993    1
    42   991   994    1
    43   961   962    1
    44   978   980    1
    45   968   966   ar
    46   988   989   ar
    47   988   986   ar
    48   943   950   ar
    49   943   944   ar
    50   989   982   ar
    51   962   963   ar
    52   945   944    2
    53   977   981    1
    54  1010  1008    1
    55   950   949   ar
    56  1027  1026    1
    57   944   946   ar
    58   918   920    1
    59   918   916    1
    60   920   921    1
    61   966   967    2
    62   966   965   ar
    63   986   987    2
    64   986   985   ar
    65   994   995    1
    66   980   981    1
    67   982   981    1
    68   982   983   ar
    69   963   965   ar
    70   963   964    2
    71   916   915    1
    72   916   917    1
    73   949   947   ar
    74  1026  1028   ar
    75  1026  1025   ar
    76  1008  1009   ar
    77  1008  1006   ar
    78   946   947   ar
    79   921   917    1
    80   921   922    1
    81   995   996    1
    82   915   914    1
    83  1007  1006    2
    84  1086  1085    2
    85  1112  1111    1
    86   985   983   ar
    87  1028  1029   ar
    88  1048  1047    2
    89  1024  1025   ar
    90  1024  1023   ar
    91   983   984    1
    92   947   948    1
    93  1049  1047   ar
    94  1049  1050   ar
    95  1051  1050    1
    96   930   929   ar
    97   930   931   ar
    98  1009  1002   ar
    99  1025  1031   ar
   100  1006  1005   ar
   101   912   911    2
   102  1113  1111   ar
   103  1113  1114   ar
   104  1111  1110   ar
   105   929   928   ar
   106  1047  1046   ar
   107  1067  1066    2
   108   914   911    1
   109  1099  1103    1
   110  1099  1098    1
   111  1103  1104    1
   112  1103  1102    1
   113  1050  1052   ar
   114   922   931   ar
   115   922   923   ar
   116  1083  1082    1
   117  1083  1084    1
   118  1083  1079    1
   119  1082  1080    1
   120   931   925   ar
   121  1085  1084   ar
   122  1085  1087   ar
   123  1114  1104   ar
   124  1114  1107   ar
   125  1023  1022   ar
   126  1029  1030   ar
   127  1068  1066   ar
   128  1068  1069   ar
   129  1098  1097    1
   130  1098  1100    1
   131   984  1013    1
   132  1104  1105   ar
   133   996   997    1
   134   996   998    1
   135  1110  1108   ar
   136   911   913    1
   137   911   897    1
   138   997  1001    1
   139  1066  1065   ar
   140  1031  1030   ar
   141  1031  1022   ar
   142   928   926   ar
   143  1084  1091   ar
   144  1079  1078    1
   145  1002  1001    1
   146  1002  1003   ar
   147  1087  1088   ar
   148  1102  1100    1
   149  1005  1003   ar
   150  1070  1069    1
   151   998  1000    1
   152   998   999    1
   153  1097  1096    1
   154   923   924   ar
   155  1107  1108   ar
   156  1107  1106   ar
   157  1046  1053   ar
   158  1046  1045   ar
   159  1052  1053   ar
   160  1121  1125    1
   161  1121  1120    1
   162  1108  1109    2
   163   925   926   ar
   164   925   924   ar
   165  1105  1106   ar
   166  1022  1021    1
   167  1069  1071   ar
   168  1078  1080    1
   169  1078  1077    1
   170  1080  1081    1
   171  1001  1000    1
   172  1013  1011    1
   173  1081  1093    1
   174   926   927    1
   175  1100  1101    1
   176  1003  1004    2
   177  1053  1043   ar
   178  1125  1126    1
   179  1125  1124    1
   180  1120  1119    1
   181  1120  1122    1
   182  1096  1093    1
   183  1045  1044   ar
   184  1065  1064    1
   185  1065  1072   ar
   186  1011  1012    2
   187  1119  1118    1
   188   999  1014    1
   189  1091  1090   ar
   190   897   896    1
   191  1088  1089    2
   192  1088  1090   ar
   193  1101  1115    1
   194  1128  1127    2
   195  1014  1015    1
   196  1126  1127   ar
   197  1126  1133   ar
   198  1064  1063    1
   199  1064  1060    1
   200  1127  1129   ar
   201  1021  1017    1
   202  1021  1020    1
   203  1071  1072   ar
   204  1017  1016    1
   205  1063  1061    1
   206  1133  1132   ar
   207  1090  1092    1
   208  1077  1076    1
   209  1093  1094    2
   210  1093  1095    1
   211  1124  1122    1
   212   908   907    1
   213  1043  1044   ar
   214  1043  1042    1
   215   898   896    1
   216   898   899    1
   217  1129  1130   ar
   218  1118  1115    1
   219  1132  1130   ar
   220   896   894    1
   221  1122  1123    1
   222  1115  1116    2
   223  1115  1117    1
   224  1130  1131    1
   225   907   909   ar
   226   907   906   ar
   227  1060  1059    1
   228  1015  1016    1
   229  1123  1135    1
   230  1076  1073    1
   231   909   910   ar
   232  1042  1038    1
   233  1042  1041    1
   234  1020  1018    1
   235  1016  1018    1
   236  1135  1134    1
   237  1140  1139    1
   238  1140  1144    1
   239  1018  1019    1
   240  1061  1062    1
   241  1061  1059    1
   242   906   904   ar
   243   899   900    1
   244   899   895    1
   245  1062  1073    1
   246  1138  1139    1
   247  1138  1137    1
   248   894   895    1
   249   894   893    1
   250  1059  1058    1
   251   910   900   ar
   252   910   903   ar
   253  1139  1141    1
   254  1038  1037    1
   255  1041  1039    1
   256  1144  1145    1
   257  1144  1143    1
   258   900   901   ar
   259   904   903   ar
   260   904   905    2
   261  1073  1074    2
   262  1073  1075    1
   263  1134  1137    1
   264  1134  1136    1
   265   903   902   ar
   266  1034  1032    2
   267   893   892    1
   268  1145  1152   ar
   269  1145  1146   ar
   270  1019  1032    1
   271  1152  1151   ar
   272  1035  1032    1
   273  1035  1036    1
   274   901   902   ar
   275  1143  1141    1
   276   892   889    1
   277  1039  1037    1
   278  1039  1040    1
   279  1147  1146    2
   280  1146  1148   ar
   281  1058  1057    1
   282  1141  1142    1
   283  1032  1033    1
   284  1037  1036    1
   285  1151  1149   ar
   286  1057  1054    1
   287   890   889    2
   288  1142  1153    1
   289  1148  1149   ar
   290  1149  1150    1
   291   891   889    1
   292   889   876    1
   293  1040  1054    1
   294  1056  1054    2
   295  1054  1055    1
   296   876   875    1
   297   885   886   ar
   298   885   883   ar
   299   886   887   ar
   300  1153  1154    2
   301  1153  1155    1
   302  1153  1156    1
   303   884   883    1
   304   877   875    1
   305   877   878    1
   306   883   882   ar
   307   887   888   ar
   308   875   873    1
   309  1159  1158    1
   310  1159  1163    1
   311  1157  1156    1
   312  1157  1158    1
   313   888   882   ar
   314   888   879   ar
   315   882   881   ar
   316  1158  1160    1
   317  1171  1170   ar
   318  1171  1164   ar
   319   879   878    1
   320   879   880   ar
   321   881   880   ar
   322  1163  1164    1
   323  1163  1162    1
   324  1170  1168   ar
   325   878   874    1
   326  1164  1165   ar
   327   873   874    1
   328   873   872    1
   329  1168  1169    1
   330  1168  1167   ar
   331  1165  1167   ar
   332  1165  1166    2
   333   871   872    1
   334   871   868    1
   335  1160  1162    1
   336  1160  1161    1
   337   869   868    2
   338   741   740    2
   339   870   868    1
   340   868   854    1
   341  1161  1172    1
   342   862   861    2
   343  1174  1172    2
   344   863   861   ar
   345   863   864   ar
   346   865   864    1
   347   762   761    2
   348   861   860   ar
   349   740   729    1
   350   740   743    1
   351   740   742    1
   352   864   866   ar
   353   744   743    1
   354   744   745    1
   355  1172  1173    1
   356  1172  1175    1
   357   729   728    1
   358   854   853    1
   359   860   867   ar
   360   860   859   ar
   361   866   867   ar
   362   748   761    1
   363   748   747    1
   364   761   763    1
   365   761   764    1
   366   867   857   ar
   367   745   747    1
   368   745   746    1
   369   859   858   ar
   370   853   855    1
   371   853   851    1
   372  1189  1190   ar
   373  1189  1187   ar
   374   725   726    1
   375   725   724    1
   376   855   856    1
   377  1190  1183   ar
   378   726   728    1
   379   726   727    1
   380  1188  1187    1
   381   728   730    1
   382  1175  1176    1
   383   722   721    2
   384   747   749    1
   385   858   857   ar
   386  1187  1186   ar
   387   857   856    1
   388  1178  1177    1
   389  1178  1182    1
   390  1176  1177    1
   391   848   846    2
   392   724   721    1
   393   746   750    1
   394   730   731    1
   395  1183  1182    1
   396  1183  1184   ar
   397   849   846    1
   398   849   850    1
   399   764   765    1
   400   856   852    1
   401   847   846    1
   402  1186  1184   ar
   403  1177  1179    1
   404   851   850    1
   405   851   852    1
   406   765   766    1
   407  1182  1181    1
   408   721   709    1
   409   721   723    1
   410   846   832    1
   411   727   731    1
   412   840   839    2
   413  1184  1185    2
   414   784   782    2
   415   749   750    1
   416   709   708    1
   417   731   732    1
   418   783   782    1
   419   750   751    1
   420   839   841   ar
   421   839   838   ar
   422   841   842   ar
   423   782   769    1
   424   782   785    1
   425   826   824    2
   426  1179  1181    1
   427  1179  1180    1
   428   838   837   ar
   429   838   845   ar
   430   837   836   ar
   431   766   768    1
   432   766   767    1
   433   769   768    1
   434   832   831    1
   435   752   751   ar
   436   752   753   ar
   437   842   843    1
   438   842   844   ar
   439   708   710    1
   440   708   706    1
   441   804   802    2
   442   751   760   ar
   443   710   711    1
   444   706   705    1
   445   706   707    1
   446   801   799    1
   447   768   770    1
   448   831   833    1
   449   831   829    1
   450   732   739   ar
   451   732   733   ar
   452   845   844   ar
   453   845   835   ar
   454   836   835   ar
   455   827   824    1
   456   827   828    1
   457  1207  1206    1
   458  1180  1191    1
   459   833   834    1
   460   767   771    1
   461   824   825    1
   462   824   810    1
   463   739   738   ar
   464   705   704    1
   465   835   834    1
   466   785   786    1
   467   818   817    2
   468   734   733    2
   469  1208  1206   ar
   470  1208  1209   ar
   471   753   754   ar
   472   773   774   ar
   473   773   772   ar
   474   707   711    1
   475   803   802    1
   476  1206  1205   ar
   477   711   712    1
   478   733   735   ar
   479   802   805    1
   480   802   790    1
   481   760   754   ar
   482   760   759   ar
   483   815   816   ar
   484   815   814   ar
   485  1193  1191    2
   486   774   775   ar
   487   834   830    1
   488   829   828    1
   489   829   830    1
   490   799   800   ar
   491   799   797   ar
   492   786   787    1
   493   817   816   ar
   494   817   819   ar
   495  1191  1194    1
   496  1191  1192    1
   497  1209  1202   ar
   498   770   771    1
   499   798   797    2
   500   702   701    2
   501   771   772    1
   502   738   736   ar
   503   754   755   ar
   504   816   823   ar
   505   704   701    1
   506   772   781   ar
   507  1205  1203   ar
   508  1194  1195    1
   509   759   758   ar
   510   714   713    2
   511   805   806    1
   512   814   813   ar
   513   800   793   ar
   514   810   809    1
   515   797   796   ar
   516   735   736   ar
   517   819   820   ar
   518   712   713   ar
   519   712   719   ar
   520   809   811    1
   521   809   807    1
   522  1202  1203   ar
   523  1202  1201    1
   524   790   789    1
   525  1197  1201    1
   526  1197  1196    1
   527  1203  1204    2
   528   789   787    1
   529   789   791    1
   530   701   690    1
   531   701   703    1
   532   775   781   ar
   533   775   776   ar
   534   713   715   ar
   535   736   737    1
   536   690   689    1
   537   787   788    1
   538   691   689    1
   539   691   692    1
   540   823   813   ar
   541   823   822   ar
   542  1195  1196    1
   543   781   780   ar
   544   813   812    1
   545   811   812    1
   546   806   807    1
   547   719   718   ar
   548  1201  1200    1
   549   758   757   ar
   550   755   757   ar
   551   755   756    1
   552  1226  1225    1
   553   820   822   ar
   554   820   821    1
   555   793   792    1
   556   793   794   ar
   557   788   792    1
   558   695   694    2
   559   796   794   ar
   560   777   776    1
   561   689   687    1
   562   807   808    1
   563  1196  1198    1
   564   776   778   ar
   565   692   688    1
   566   692   693    1
   567   812   808    1
   568   791   792    1
   569   715   716   ar
   570   687   688    1
   571   687   686    1
   572   794   795    2
   573   458   457    2
   574   780   779   ar
   575  1225  1227   ar
   576  1225  1224   ar
   577   718   716   ar
   578   718   720    1
   579  1198  1200    1
   580  1198  1199    1
   581   480   479    2
   582   694   693   ar
   583   694   696   ar
   584  1308  1307   ar
   585  1308  1309   ar
   586  1307  1306   ar
   587   693   700   ar
   588  1227  1228   ar
   589  1223  1224   ar
   590  1223  1222   ar
   591   716   717    2
   592   778   779   ar
   593  1224  1230   ar
   594   461   462    1
   595   461   460    1
   596  1315  1316    1
   597  1315  1314    1
   598  1315  1317    1
   599   686   685    1
   600  1316  1320    1
   601  1314  1313    1
   602  1299  1298    1
   603  1299  1295    1
   604  1299  1300    1
   605   696   697   ar
   606  1298  1296    1
   607   465   479    1
   608   465   464    1
   609  1306  1304   ar
   610   457   445    1
   611   457   460    1
   612   457   459    1
   613  1199  1210    1
   614   479   482    1
   615   479   481    1
   616  1212  1210    2
   617  1309  1300   ar
   618  1309  1303   ar
   619  1282  1281    2
   620  1222  1221   ar
   621   445   444    1
   622   462   464    1
   623   462   463    1
   624  1320  1319    1
   625  1320  1321    1
   626  1247  1246    1
   627  1295  1294    1
   628  1228  1229   ar
   629   700   699   ar
   630  1300  1301   ar
   631  1230  1221   ar
   632  1230  1229   ar
   633  1318  1317    1
   634  1318  1330    1
   635   483   482    1
   636   483   484    1
   637  1319  1317    1
   638   685   682    1
   639  1294  1296    1
   640  1294  1293    1
   641   499   498    2
   642  1297  1296    1
   643  1297  1310    1
   644   464   466    1
   645  1311  1310    2
   646   697   699   ar
   647   697   698    1
   648  1221  1220    1
   649  1313  1310    1
   650  1304  1303   ar
   651  1304  1305    1
   652  1210  1211    1
   653  1210  1213    1
   654  1303  1302   ar
   655  1283  1281   ar
   656  1283  1284   ar
   657  1281  1280   ar
   658   683   682    2
   659  1266  1265    1
   660   463   467    1
   661  1246  1245   ar
   662  1246  1248   ar
   663  1321  1322   ar
   664  1321  1328   ar
   665  1310  1312    1
   666  1323  1322    2
   667   444   442    1
   668   444   446    1
   669   442   441    1
   670   442   443    1
   671   487   498    1
   672   487   486    1
   673  1245  1243   ar
   674  1301  1302   ar
   675   441   440    1
   676  1331  1330    2
   677   498   500    1
   678   498   501    1
   679   682   684    1
   680   682   668    1
   681  1264  1265   ar
   682  1264  1262   ar
   683  1330  1333    1
   684  1330  1332    1
   685   484   486    1
   686   484   485    1
   687   466   467    1
   688   446   447    1
   689  1293  1292    1
   690  1216  1220    1
   691  1216  1215    1
   692  1322  1324   ar
   693  1334  1333    1
   694  1334  1335    1
   695  1213  1214    1
   696  1328  1327   ar
   697  1220  1219    1
   698  1285  1284    2
   699   679   678    1
   700  1265  1267   ar
   701   438   437    2
   702  1284  1286   ar
   703  1248  1249   ar
   704  1263  1262    2
   705   486   488    1
   706  1278  1279    1
   707  1278  1276    1
   708   467   468    1
   709  1280  1279    1
   710  1280  1287   ar
   711  1279  1275    1
   712   443   447    1
   713  1336  1335    1
   714  1336  1340    1
   715  1262  1261   ar
   716  1214  1215    1
   717  1335  1337    1
   718   485   489    1
   719  1243  1244    2
   720  1243  1242   ar
   721   447   448    1
   722   668   667    1
   723   440   437    1
   724   678   680   ar
   725   678   677   ar
   726  1324  1325   ar
   727  1292  1289    1
   728  1327  1325   ar
   729  1327  1329    1
   730  1215  1217    1
   731   437   423    1
   732   437   439    1
   733   501   502    1
   734   669   667    1
   735   669   670    1
   736   423   422    1
   737  1219  1217    1
   738   680   681   ar
   739  1249  1242   ar
   740  1267  1268   ar
   741   677   675   ar
   742  1286  1287   ar
   743  1286  1288    1
   744   468   469   ar
   745   468   478   ar
   746  1217  1218    1
   747   502   503    1
   748   469   470   ar
   749  1325  1326    2
   750  1275  1274    1
   751   488   489    1
   752  1242  1241    1
   753  1340  1341    1
   754  1340  1339    1
   755   667   665    1
   756  1276  1277    1
   757  1276  1274    1
   758  1342  1341   ar
   759  1342  1343   ar
   760  1261  1268   ar
   761  1261  1260    1
   762  1277  1289    1
   763   424   422    1
   764   424   425    1
   765   489   490    1
   766   497   496   ar
   767   497   490   ar
   768  1341  1351   ar
   769  1233  1231    2
   770   448   449   ar
   771   448   455   ar
   772   450   449    2
   773  1337  1338    1
   774  1337  1339    1
   775   681   674   ar
   776   681   671   ar
   777  1289  1291    2
   778  1289  1290    1
   779   517   515    1
   780   422   420    1
   781   675   676    2
   782   675   674   ar
   783  1274  1273    1
   784  1343  1344   ar
   785   670   671    1
   786   670   666    1
   787  1338  1352    1
   788   496   494   ar
   789   520   518    2
   790   490   491   ar
   791   478   477   ar
   792   478   471   ar
   793   449   451   ar
   794   470   471   ar
   795   674   673   ar
   796   671   672   ar
   797   420   421    1
   798   420   419    1
   799   455   454   ar
   800  1260  1259    1
   801  1260  1256    1
   802  1241  1237    1
   803  1241  1240    1
   804  1218  1231    1
   805   519   518    1
   806   434   433    1
   807   503   505    1
   808   503   504    1
   809   665   666    1
   810   665   664    1
   811  1351  1344   ar
   812  1351  1350   ar
   813   477   475   ar
   814   518   506    1
   815   518   521    1
   816   425   421    1
   817   425   426    1
   818  1344  1345   ar
   819   506   505    1
   820  1259  1257    1
   821   435   433   ar
   822   435   436   ar
   823  1237  1236    1
   824   471   472   ar
   825  1520  1519    1
   826  1520  1524    1
   827  1231  1234    1
   828  1231  1232    1
   829   505   507    1
   830   515   516   ar
   831   515   513   ar
   832   672   673   ar
   833  1350  1348   ar
   834   516   509   ar
   835   419   418    1
   836  1519  1518    1
   837  1519  1521    1
   838  1518  1517    1
   839  1504  1505    1
   840  1504  1502    1
   841   504   508    1
   842  1505  1501    1
   843  1505  1506    1
   844   433   432   ar
   845  1273  1272    1
   846  1508  1507    2
   847  1234  1235    1
   848   451   452   ar
   849  1501  1500    1
   850  1256  1255    1
   851   664   663    1
   852  1500  1502    1
   853  1500  1499    1
   854  1240  1238    1
   855  1272  1269    1
   856   454   452   ar
   857   454   456    1
   858  1353  1352    2
   859  1354  1352    1
   860   663   660    1
   861  1352  1355    1
   862  1492  1493   ar
   863  1492  1491   ar
   864   494   493   ar
   865   494   495    1
   866   491   492    2
   867   491   493   ar
   868  1493  1494   ar
   869  1345  1346    2
   870  1345  1347   ar
   871  1524  1523    1
   872  1524  1525    1
   873   661   660    2
   874   426   436   ar
   875   426   427   ar
   876   475   476    1
   877   475   474   ar
   878   436   429   ar
   879  1348  1347   ar
   880  1348  1349    1
   881  1503  1502    1
   882  1503  1514    1
   883  1257  1255    1
   884  1257  1258    1
   885   452   453    2
   886  1238  1236    1
   887  1238  1239    1
   888  1499  1498    1
   889   521   522    1
   890  1236  1235    1
   891   418   415    1
   892   513   514    2
   893   513   512   ar
   894   662   660    1
   895   660   649    1
   896   509   508    1
   897   509   510   ar
   898   472   474   ar
   899   472   473    2
   900  1507  1506   ar
   901  1507  1509   ar
   902   508   507    1
   903  1506  1513   ar
   904  1484  1483    1
   905  1484  1480    1
   906  1484  1485    1
   907  1491  1489   ar
   908  1523  1521    1
   909  1517  1514    1
   910  1483  1481    1
   911  1527  1526    2
   912  1521  1522    1
   913   432   430   ar
   914  1515  1514    2
   915  1255  1254    1
   916  1522  1533    1
   917  1271  1269    2
   918  1525  1526   ar
   919  1525  1532   ar
   920  1494  1485   ar
   921  1494  1488   ar
   922  1355  1356    1
   923   227   226    2
   924  1514  1516    1
   925  1269  1258    1
   926  1269  1270    1
   927   427   428   ar
   928   522   523    1
   929   416   415    2
   930  1480  1479    1
   931  1356  1357    1
   932  1526  1528   ar
   933   429   430   ar
   934   429   428   ar
   935  1485  1486   ar
   936  1539  1538    1
   937  1539  1543    1
   938  1537  1538    1
   939  1537  1536    1
   940  1253  1254    1
   941  1253  1250    1
   942   213   226    1
   943   213   212    1
   944  1532  1531   ar
   945  1509  1510   ar
   946   531   530   ar
   947   531   532   ar
   948  1369  1370   ar
   949  1369  1367   ar
   950   512   510   ar
   951  1479  1481    1
   952  1479  1478    1
   953  1538  1540    1
   954  1498  1495    1
   955  1239  1250    1
   956   430   431    2
   957   510   511    2
   958   415   417    1
   959   415   401    1
   960  1482  1481    1
   961  1482  1495    1
   962  1252  1250    2
   963  1513  1512   ar
   964  1467  1466    2
   965  1534  1533    2
   966   412   411    1
   967  1489  1488   ar
   968  1489  1490    1
   969  1358  1357    1
   970  1358  1362    1
   971   530   529   ar
   972   230   229    1
   973   230   231    1
   974  1370  1363   ar
   975  1250  1251    1
   976   210   209    1
   977   210   212    1
   978   210   211    1
   979   209   208    1
   980   649   648    1
   981  1488  1487   ar
   982   226   229    1
   983   226   228    1
   984   654   653    2
   985  1533  1536    1
   986  1533  1535    1
   987  1368  1367    1
   988   655   653   ar
   989   655   656   ar
   990   249   248    2
   991  1528  1529   ar
   992  1367  1366   ar
   993  1357  1359    1
   994  1543  1544    1
   995  1543  1542    1
   996  1496  1495    2
   997   206   205    2
   998   558   556    1
   999   650   648    1
  1000   650   651    1
  1001   657   656    1
  1002   212   214    1
  1003   534   533    1
  1004   653   652   ar
  1005  1495  1497    1
  1006   555   554    2
  1007  1531  1529   ar
  1008   541   539    2
  1009  1486  1487   ar
  1010   523   524    1
  1011   523   525    1
  1012   648   646    1
  1013   411   410   ar
  1014   411   413   ar
  1015  1510  1512   ar
  1016  1510  1511    1
  1017   524   528    1
  1018   656   658   ar
  1019   214   215    1
  1020   211   215    1
  1021   231   233    1
  1022   231   232    1
  1023  1363  1362    1
  1024  1363  1364   ar
  1025   234   248    1
  1026   234   233    1
  1027   532   533   ar
  1028   532   538   ar
  1029  1466  1468   ar
  1030  1466  1465   ar
  1031  1478  1477    1
  1032  1529  1530    1
  1033  1362  1361    1
  1034   410   408   ar
  1035  1540  1542    1
  1036  1540  1541    1
  1037  1544  1545   ar
  1038  1544  1554   ar
  1039  1468  1469   ar
  1040   529   528    1
  1041   529   538   ar
  1042  1366  1364   ar
  1043   191   205    1
  1044   191   190    1
  1045   248   250    1
  1046   248   251    1
  1047   401   400    1
  1048   208   205    1
  1049   525   526    1
  1050   525   527    1
  1051   413   414   ar
  1052  1463  1464    1
  1053  1463  1461    1
  1054  1545  1546   ar
  1055   215   216    1
  1056   652   651    1
  1057   652   659   ar
  1058  1541  1556    1
  1059   533   535   ar
  1060   402   400    1
  1061   402   403    1
  1062  1364  1365    2
  1063   615   614    2
  1064   205   207    1
  1065   658   659   ar
  1066   554   556   ar
  1067   554   553   ar
  1068  1359  1361    1
  1069  1359  1360    1
  1070   651   647    1
  1071   233   235    1
  1072   556   557   ar
  1073  1556  1555    1
  1074  1448  1447    2
  1075   526   539    1
  1076   528   527    1
  1077   635   634    2
  1078   232   236    1
  1079   539   540    1
  1080   539   542    1
  1081   538   537   ar
  1082  1373  1371    2
  1083  1554  1553   ar
  1084  1554  1547   ar
  1085  1429  1428    2
  1086  1477  1474    1
  1087   408   409    2
  1088   408   407   ar
  1089  1464  1465    1
  1090  1464  1460    1
  1091  1465  1472   ar
  1092  1432  1431    1
  1093  1553  1551   ar
  1094  1430  1428   ar
  1095  1430  1431   ar
  1096   400   398    1
  1097   594   593    1
  1098   643   641    2
  1099  1546  1547   ar
  1100   192   190    1
  1101   192   193    1
  1102   646   647    1
  1103   646   645    1
  1104  1449  1447   ar
  1105  1449  1450   ar
  1106   414   407   ar
  1107   414   404   ar
  1108   644   645    1
  1109   644   641    1
  1110   636   634   ar
  1111   636   637   ar
  1112   613   614   ar
  1113   613   611   ar
  1114   190   188    1
  1115   188   187    1
  1116   188   189    1
  1117  1360  1371    1
  1118  1469  1470    2
  1119  1469  1471   ar
  1120   634   633   ar
  1121  1462  1461    1
  1122  1462  1474    1
  1123   614   616   ar
  1124  1547  1548   ar
  1125  1447  1446   ar
  1126   407   406   ar
  1127  1461  1459    1
  1128   638   637    1
  1129   403   404    1
  1130   403   399    1
  1131  1428  1427   ar
  1132   535   536   ar
  1133  1451  1450    1
  1134   251   252    1
  1135  1431  1433   ar
  1136   216   217   ar
  1137   216   225   ar
  1138  1555  1557    1
  1139  1555  1558    1
  1140   553   551   ar
  1141   557   550   ar
  1142   235   236    1
  1143  1551  1552    1
  1144  1551  1550   ar
  1145   575   574    1
  1146  1387  1386    2
  1147  1371  1372    1
  1148  1371  1374    1
  1149   641   642    1
  1150   641   627    1
  1151   637   639   ar
  1152   404   405   ar
  1153   252   253    1
  1154   187   186    1
  1155   595   593   ar
  1156   595   596   ar
  1157  1409  1408    2
  1158   193   189    1
  1159   193   194    1
  1160   612   611    2
  1161   236   237    1
  1162  1450  1452   ar
  1163   542   543    1
  1164  1384  1383   ar
  1165  1384  1385   ar
  1166  1474  1475    2
  1167  1474  1476    1
  1168   593   592   ar
  1169   537   536   ar
  1170  1460  1459    1
  1171   611   610   ar
  1172   202   201    1
  1173  1472  1471   ar
  1174   398   399    1
  1175   398   397    1
  1176  1548  1550   ar
  1177  1548  1549    2
  1178   224   225   ar
  1179   224   223   ar
  1180   633   632   ar
  1181   633   640   ar
  1182  1459  1458    1
  1183  1559  1558    1
  1184  1559  1560    1
  1185   406   405   ar
  1186   217   218   ar
  1187  1471  1473    1
  1188   203   201   ar
  1189   203   204   ar
  1190   225   219   ar
  1191  1383  1382   ar
  1192  1386  1385   ar
  1193  1386  1388   ar
  1194   616   618    1
  1195   616   617   ar
  1196   639   640   ar
  1197  1446  1445    1
  1198  1446  1453   ar
  1199   632   631   ar
  1200   238   237   ar
  1201   238   239   ar
  1202  1385  1392   ar
  1203   550   551   ar
  1204   550   549    1
  1205  1374  1375    1
  1206  1427  1434   ar
  1207  1427  1426   ar
  1208   640   630   ar
  1209   551   552    2
  1210   596   597   ar
  1211  1433  1434   ar
  1212   201   200   ar
  1213   574   576   ar
  1214   574   573   ar
  1215   237   247   ar
  1216  1561  1560    1
  1217  1561  1565    1
  1218   184   183    2
  1219  1408  1407   ar
  1220  1408  1410   ar
  1221   186   183    1
  1222  1445  1444    1
  1223  1445  1441    1
  1224  1412  1410    1
  1225   561   559    2
  1226   576   577   ar
  1227  1444  1442    1
  1228  1560  1562    1
  1229   194   204   ar
  1230   194   195   ar
  1231   543   544    1
  1232  1574  1572    1
  1233   397   396    1
  1234   253   254    1
  1235   253   255    1
  1236   592   591   ar
  1237   592   598   ar
  1238   627   626    1
  1239  1452  1453   ar
  1240   223   222   ar
  1241   610   617   ar
  1242   610   609    1
  1243   272   270    2
  1244   396   393    1
  1245   204   197   ar
  1246  1434  1424   ar
  1247   256   255    1
  1248   256   270    1
  1249   628   626    1
  1250   628   629    1
  1251   626   624    1
  1252   631   630   ar
  1253   218   219   ar
  1254  1388  1389   ar
  1255  1407  1405   ar
  1256   630   629    1
  1257  1458  1457    1
  1258  1382  1392   ar
  1259  1382  1381    1
  1260   219   220   ar
  1261  1426  1425   ar
  1262  1410  1411   ar
  1263   621   619    2
  1264   591   590   ar
  1265  1573  1572   ar
  1266  1573  1566   ar
  1267   239   240   ar
  1268  1392  1391   ar
  1269   183   170    1
  1270   183   185    1
  1271  1375  1376    1
  1272   180   181   ar
  1273   180   179   ar
  1274   573   571   ar
  1275   545   549    1
  1276   545   544    1
  1277   395   393    2
  1278   254   258    1
  1279   255   257    1
  1280   394   393    1
  1281  1572  1570   ar
  1282   271   270    1
  1283   289   287    1
  1284   546   544    1
  1285   546   548    1
  1286   546   547    1
  1287  1565  1566    1
  1288  1565  1564    1
  1289   549   548    1
  1290   597   598   ar
  1291   393   381    1
  1292  1377  1381    1
  1293  1377  1376    1
  1294   270   273    1
  1295   181   182   ar
  1296   200   198   ar
  1297   247   240   ar
  1298   247   246   ar
  1299   598   589   ar
  1300   608   609    1
  1301   608   606    1
  1302  1441  1440    1
  1303   577   570   ar
  1304   260   261   ar
  1305   260   259   ar
  1306   195   196   ar
  1307   629   625    1
  1308   170   169    1
  1309  1566  1567   ar
  1310   622   619    1
  1311   622   623    1
  1312   609   605    1
  1313   171   169    1
  1314   171   172    1
  1315   559   547    1
  1316   559   560    1
  1317   559   562    1
  1318   222   220   ar
  1319  1457  1454    1
  1320  1442  1443    1
  1321  1442  1440    1
  1322  1562  1564    1
  1323  1562  1563    1
  1324   389   388    2
  1325  1389  1391   ar
  1326  1389  1390    1
  1327   179   177   ar
  1328  1381  1380    1
  1329   197   198   ar
  1330   197   196   ar
  1331  1424  1425   ar
  1332  1424  1423    1
  1333   387   388   ar
  1334   387   385   ar
  1335   240   241   ar
  1336   220   221    1
  1337   386   385    2
  1338  1376  1378    1
  1339  1456  1454    2
  1340   246   244   ar
  1341   261   262   ar
  1342   619   620    1
  1343   619   607    1
  1344  1570  1571    2
  1345  1570  1569   ar
  1346   624   623    1
  1347   624   625    1
  1348   286   285    2
  1349  1405  1406    2
  1350  1405  1404   ar
  1351   381   380    1
  1352  1443  1454    1
  1353  1411  1404   ar
  1354   590   589   ar
  1355  1563  1575    1
  1356   388   390   ar
  1357   571   570   ar
  1358   571   572    2
  1359   198   199    2
  1360   258   259    1
  1361   258   257    1
  1362   385   384   ar
  1363  1440  1439    1
  1364   606   607    1
  1365   606   604    1
  1366   169   167    1
  1367   382   380    1
  1368   382   383    1
  1369  1591  1590    2
  1370   562   563    1
  1371   259   269   ar
  1372  1567  1569   ar
  1373  1567  1568    2
  1374   570   569    1
  1375   589   588    1
  1376   287   285   ar
  1377   287   288   ar
  1378  1395  1393    2
  1379  1378  1380    1
  1380  1378  1379    1
  1381   182   173   ar
  1382   182   176   ar
  1383   306   305    1
  1384   172   173    1
  1385   172   168    1
  1386  1454  1455    1
  1387  1404  1403    1
  1388   273   274    1
  1389   285   284   ar
  1390   605   604    1
  1391   156   155    2
  1392  1423  1422    1
  1393  1423  1419    1
  1394   380   378    1
  1395  1588  1587   ar
  1396  1588  1589   ar
  1397   157   155   ar
  1398   157   158   ar
  1399   383   384    1
  1400   383   379    1
  1401   177   176   ar
  1402   177   178    1
  1403   138   137    1
  1404   159   158    1
  1405   390   392    1
  1406   390   391   ar
  1407  1422  1420    1
  1408   173   174   ar
  1409   384   391   ar
  1410   244   243   ar
  1411   244   245    1
  1412   241   243   ar
  1413   241   242    2
  1414   262   269   ar
  1415   262   263   ar
  1416  1590  1589   ar
  1417  1590  1592   ar
  1418   167   168    1
  1419   167   166    1
  1420   288   281   ar
  1421   580   578    2
  1422   176   175   ar
  1423  1438  1439    1
  1424  1438  1435    1
  1425   604   603    1
  1426   155   154   ar
  1427  1577  1575    2
  1428  1575  1578    1
  1429  1575  1576    1
  1430  1587  1586   ar
  1431  1379  1393    1
  1432  1589  1596   ar
  1433  1635  1636    1
  1434  1635  1633    2
  1435   269   268   ar
  1436   368   367    1
  1437   158   160   ar
  1438   565   569    1
  1439   565   564    1
  1440   305   307   ar
  1441   305   304   ar
  1442  1634  1633    1
  1443   274   275    1
  1444   569   568    1
  1445   292   290    2
  1446   563   564    1
  1447  1613  1612    1
  1448   602   603    1
  1449   602   599    1
  1450   601   599    2
  1451  1393  1396    1
  1452  1393  1394    1
  1453   307   308   ar
  1454   588   587    1
  1455   588   584    1
  1456   369   367   ar
  1457   369   370   ar
  1458  1419  1418    1
  1459    78    79   ar
  1460    78    77   ar
  1461   139   137   ar
  1462   139   140   ar
  1463   284   282   ar
  1464  1578  1579    1
  1465   566   564    1
  1466   566   568    1
  1467   566   567    1
  1468  1403  1399    1
  1469  1403  1402    1
  1470  1396  1397    1
  1471   587   585    1
  1472   137   136   ar
  1473  1636  1637    2
  1474   367   366   ar
  1475   379   378    1
  1476   378   377    1
  1477   264   263    2
  1478  1592  1593   ar
  1479  1420  1418    1
  1480  1420  1421    1
  1481   263   265   ar
  1482  1633  1632    1
  1483  1437  1435    2
  1484   174   175   ar
  1485    79    80   ar
  1486   370   371   ar
  1487  1399  1398    1
  1488   585   586    1
  1489   585   583    1
  1490   581   578    1
  1491   581   582    1
  1492  1586  1596   ar
  1493  1586  1585    1
  1494   166   165    1
  1495  1596  1595   ar
  1496   281   282   ar
  1497   281   280    1
  1498  1435  1421    1
  1499  1435  1436    1
  1500   304   302   ar
  1501   578   567    1
  1502   578   579    1
  1503    77    75   ar
  1504   599   586    1
  1505   599   600    1
  1506   584   583    1
  1507   154   153    1
  1508   154   161   ar
  1509   268   266   ar
  1510    87    91    1
  1511    87    86    1
  1512  1581  1585    1
  1513  1581  1580    1
  1514  1402  1400    1
  1515  1612  1614   ar
  1516  1612  1611   ar
  1517   308   301   ar
  1518   160   161   ar
  1519  1418  1417    1
  1520   282   283    2
  1521   275   276    1
  1522   275   277    1
  1523    91    90    1
  1524    91    92    1
  1525   140   141   ar
  1526   376   377    1
  1527   376   373    1
  1528   366   372   ar
  1529   366   365   ar
  1530    86    85    1
  1531    86    88    1
  1532   276   280    1
  1533   346   345    2
  1534   290   291    1
  1535   290   278    1
  1536   290   293    1
  1537   277   278    1
  1538   277   279    1
  1539  1400  1398    1
  1540  1400  1401    1
  1541  1585  1584    1
  1542  1593  1595   ar
  1543  1593  1594    1
  1544  1579  1580    1
  1545   371   372   ar
  1546  1397  1398    1
  1547   136   135   ar
  1548   136   142   ar
  1549  1415  1413    2
  1550  1614  1615   ar
  1551   152   153    1
  1552   152   150    1
  1553  1637  1638    1
  1554   583   582    1
  1555  1416  1417    1
  1556  1416  1413    1
  1557   153   149    1
  1558  1610  1611   ar
  1559  1610  1609   ar
  1560   265   266   ar
  1561   165   162    1
  1562    85    84    1
  1563    90    88    1
  1564    69    70    1
  1565    69    67    1
  1566   372   363   ar
  1567   365   364   ar
  1568  1632  1638    1
  1569  1632  1631    1
  1570   101    99   ar
  1571   101   102   ar
  1572  1611  1617   ar
  1573    80    71   ar
  1574    80    74   ar
  1575   100    99    1
  1576   280   279    1
  1577   266   267    1
  1578   135   134   ar
  1579   293   294    1
  1580   302   301   ar
  1581   302   303    2
  1582  1580  1582    1
  1583   375   373    2
  1584    92   102   ar
  1585    92    93   ar
  1586    75    74   ar
  1587    75    76    1
  1588   301   300    1
  1589    70    71    1
  1590    70    66    1
  1591    89    88    1
  1592    89   103    1
  1593   109   108    1
  1594   109   113    1
  1595  1638  1629    2
  1596    99    98   ar
  1597   345   347   ar
  1598   345   344   ar
  1599   107   108    1
  1600   107   106    1
  1601   102    95   ar
  1602   373   374    1
  1603   373   360    1
  1604  1413  1401    1
  1605  1413  1414    1
  1606   141   142   ar
  1607    54    53    2
  1608   142   133   ar
  1609   108   110    1
  1610    71    72   ar
  1611   311   309    2
  1612   364   363   ar
  1613   363   362    1
  1614  1609  1608   ar
  1615    74    73   ar
  1616  1615  1616   ar
  1617   310   309    1
  1618   347   348   ar
  1619  1582  1584    1
  1620  1582  1583    1
  1621    55    53   ar
  1622    55    56   ar
  1623  1631  1630    2
  1624   104   103    2
  1625    84    81    1
  1626    93    94   ar
  1627   149   148    1
  1628   150   151    1
  1629   150   148    1
  1630    68    67    1
  1631    68    81    1
  1632  1617  1616   ar
  1633  1617  1608   ar
  1634    67    65    1
  1635   361   359    1
  1636   361   362    1
  1637    57    56    1
  1638   134   133   ar
  1639  1599  1597    2
  1640   332   330    2
  1641   162   151    1
  1642   162   163    2
  1643   162   164    1
  1644    53    52   ar
  1645    98    96   ar
  1646    66    65    1
  1647   294   295    1
  1648   343   344   ar
  1649   343   342   ar
  1650   344   351   ar
  1651   113   114    1
  1652   113   112    1
  1653    95    94   ar
  1654    95    96   ar
  1655   309   298    1
  1656   309   312    1
  1657   360   359    1
  1658   296   300    1
  1659   296   295    1
  1660   359   357    1
  1661   300   299    1
  1662  1608  1607    1
  1663   116   115    2
  1664   297   295    1
  1665   297   299    1
  1666   297   298    1
  1667    82    81    2
  1668    81    83    1
  1669   106   103    1
  1670   133   132    1
  1671  1629  1630    1
  1672    65    64    1
  1673   103   105    1
  1674    56    58   ar
  1675   114   115   ar
  1676   114   121   ar
  1677   362   358    1
  1678   354   352    2
  1679   148   147    1
  1680    72    73   ar
  1681    96    97    2
  1682   110   111    1
  1683   110   112    1
  1684   348   349    1
  1685   348   350   ar
  1686   111   122    1
  1687   325   324    1
  1688  1583  1597    1
  1689   115   117   ar
  1690    35    34    2
  1691   322   321   ar
  1692   322   323   ar
  1693   121   120   ar
  1694  1597  1600    1
  1695  1597  1598    1
  1696   313   312    1
  1697   313   314    1
  1698   355   352    1
  1699   355   356    1
  1700   342   341   ar
  1701   351   350   ar
  1702   351   341   ar
  1703    36    34    1
  1704    36    37    2
  1705    52    51    1
  1706    52    59   ar
  1707   330   331    1
  1708   330   333    1
  1709   330   317    1
  1710  1600  1601    1
  1711   321   320   ar
  1712   358   357    1
  1713    38    37    1
  1714   146   147    1
  1715   146   143    1
  1716  1607  1603    1
  1717  1607  1606    1
  1718   117   118   ar
  1719   357   356    1
  1720   352   353    1
  1721   352   338    1
  1722    34    33    1
  1723   324   323   ar
  1724   324   326   ar
  1725   132   131    1
  1726   132   128    1
  1727   123   122    2
  1728    51    50    1
  1729    51    47    1
  1730   323   329   ar
  1731   120   118   ar
  1732    50    48    1
  1733    58    59   ar
  1734  1603  1602    1
  1735    64    63    1
  1736   131   129    1
  1737   341   340    1
  1738   122   125    1
  1739   122   124    1
  1740   333   334    1
  1741   118   119    1
  1742   316   317    1
  1743   316   314    1
  1744   316   318    1
  1745    37    39    1
  1746   125   126    1
  1747   314   315    1
  1748   145   143    2
  1749    63    60    1
  1750   129   127    1
  1751   129   130    1
  1752   320   329   ar
  1753   320   319    1
  1754   128   127    1
  1755  1601  1602    1
  1756   326   327   ar
  1757   329   328   ar
  1758   337   338    1
  1759   337   339    1
  1760   337   335    1
  1761   315   319    1
  1762   143   130    1
  1763   143   144    1
  1764  1604  1619    1
  1765   339   340    1
  1766    47    46    1
  1767    33    40    1
  1768    33    32    1
  1769    33  1627    1
  1770   340   336    1
  1771  1621  1618    1
  1772  1621  1622    1
  1773   318   319    1
  1774    48    49    1
  1775    48    46    1
  1776   127   126    1
  1777    39    40    2
  1778   334   335    1
  1779  1618  1620    1
  1780  1624  1623    1
  1781  1624  1628    1
  1782   327   328   ar
  1783  1623  1622    1
  1784  1623  1625    1
  1785    49    60    1
  1786   335   336    1
  1787  1619  1605    1
  1788    40    30    1
  1789    32  1628    1
  1790    32  1627    1
  1791    32    31    1
  1792    46    45    1
  1793    60    62    2
  1794    60    61    1
  1795  1627  1625    1
  1796  1627    31    1
  1797  1626  1625    1
  1798    31    30    1
  1799    30    29    1
  1800    45    44    1
  1801    44    41    1
  1802    28    29    1
  1803    28    26    1
  1804    43    41    2
  1805    29    25    1
  1806    41    42    1
  1807    41    27    1
  1808    26    27    1
  1809    26    24    1
  1810    25    24    1
  1811    21    19    2
  1812    24    23    1
  1813    22    19    1
  1814    22    23    1
  1815    19    20    1
  1816    19     6    1
  1817     1     2    1
  1818    11    10   ar
  1819    11    12   ar
  1820     2     3    1
  1821     6     5    1
  1822    10     9   ar
  1823     5     3    1
  1824     5     7    1
  1825    14    13    1
  1826    12    13   ar
  1827    12    18   ar
  1828     3     4    1
  1829    13    15   ar
  1830     9    18   ar
  1831     9     8    1
  1832     7     8    1
  1833     4     8    1
  1834    18    17   ar
  1835    15    16   ar
  1836    17    16   ar
