@<TRIPOS>MOLECULE
dna.pdb
 1463 1638 0 0 0
SMALL
GASTEIGER

@<TRIPOS>ATOM
      1  O5'       13.8530   18.7270   -6.5400 O.3     1  DA1        -0.2176
      2  C5'       14.6910   19.5170   -5.7260 C.3     1  DA1         0.2140
      3  C4'       14.0170   19.7540   -4.4180 C.3     1  DA1         0.1776
      4  O4'       12.7920   20.4740   -4.6920 O.3     1  DA1        -0.3326
      5  C3'       13.5500   18.4950   -3.7060 C.3     1  DA1         0.1559
      6  O3'       14.6260   17.9250   -2.9540 O.3     1  DA1        -0.3138
      7  C2'       12.4280   19.0470   -2.8340 C.3     1  DA1         0.0865
      8  C1'       11.7900   20.0800   -3.7720 C.3     1  DA1         0.2094
      9  N9        10.7060   19.5430   -4.6090 N.ar    1  DA1        -0.2714
     10  C8        10.7720   19.0250   -5.8760 C.ar    1  DA1         0.1815
     11  N7         9.6230   18.5800   -6.3270 N.ar    1  DA1        -0.2193
     12  C5         8.7420   18.8220   -5.2840 C.ar    1  DA1         0.1518
     13  C6         7.3650   18.5790   -5.1340 C.ar    1  DA1         0.1919
     14  N6         6.6070   18.0160   -6.0780 N.pl3   1  DA1        -0.1054
     15  N1         6.7890   18.9400   -3.9680 N.ar    1  DA1        -0.2040
     16  C2         7.5500   19.5050   -3.0230 C.ar    1  DA1         0.2016
     17  N3         8.8510   19.7840   -3.0480 N.ar    1  DA1        -0.2048
     18  C4         9.3940   19.4130   -4.2190 C.ar    1  DA1         0.1691
     19  P         14.5510   16.3640   -2.4370 P.3     2  DT2         0.2141
     20  OP1       15.8240   15.8690   -1.8660 O.3     2  DT2        -0.4373
     21  OP2       14.2310   16.1460   -3.8660 O.2     2  DT2        -0.5172
     22  O5'       13.3340   15.6810   -1.6470 O.3     2  DT2        -0.3114
     23  C5'       13.1960   15.8570   -0.2450 C.3     2  DT2         0.1811
     24  C4'       11.7470   15.8630    0.1910 C.3     2  DT2         0.1746
     25  O4'       10.9630   16.7170   -0.6770 O.3     2  DT2        -0.3327
     26  C3'       11.0030   14.5360    0.1520 C.3     2  DT2         0.1558
     27  O3'       11.2970   13.7120    1.2690 O.3     2  DT2        -0.3138
     28  C2'        9.5460   14.9790    0.1000 C.3     2  DT2         0.0866
     29  C1'        9.6370   16.2420   -0.7480 C.3     2  DT2         0.2106
     30  N1         9.2200   16.0060   -2.1070 N.ar    2  DT2        -0.2559
     31  C2         7.8700   16.0920   -2.3890 C.ar    2  DT2         0.3545
     32  O2         7.0180   16.2240   -1.5280 O.2     2  DT2        -0.2443
     33  N3         7.5490   16.0170   -3.7230 N.ar    2  DT2        -0.1533
     34  C4         8.4230   15.8670   -4.7790 C.ar    2  DT2         0.2804
     35  O4         7.9840   15.8160   -5.9250 O.2     2  DT2        -0.2654
     36  C5         9.8070   15.7840   -4.4050 C.ar    2  DT2         0.0534
     37  C6        10.1470   15.8550   -3.1150 C.ar    2  DT2         0.0824
     38  C7        10.8370   15.6190   -5.4830 C.3     2  DT2         0.0377
     39  P         11.2470   12.1280    1.1840 P.3     3  DC3         0.2141
     40  OP1       11.9750   11.4610    2.2900 O.3     3  DC3        -0.4373
     41  OP2       11.8310   12.1250   -0.1860 O.2     3  DC3        -0.5172
     42  O5'        9.7930   11.4980    1.1410 O.3     3  DC3        -0.3114
     43  C5'        8.9790   11.5070    2.3060 C.3     3  DC3         0.1811
     44  C4'        7.5690   11.1030    1.9630 C.3     3  DC3         0.1746
     45  O4'        6.9690   12.0900    1.0820 O.3     3  DC3        -0.3327
     46  C3'        7.4130    9.7860    1.2250 C.3     3  DC3         0.1558
     47  O3'        7.4510    8.6890    2.1070 O.3     3  DC3        -0.3138
     48  C2'        6.0600    9.9580    0.5500 C.3     3  DC3         0.0866
     49  C1'        6.0910   11.4420    0.1810 C.3     3  DC3         0.2106
     50  N1         6.5960   11.6230   -1.1830 N.ar    3  DC3        -0.2556
     51  C2         5.7550   11.2910   -2.2520 C.ar    3  DC3         0.3531
     52  O2         4.5960   10.9140   -2.0060 O.2     3  DC3        -0.2443
     53  N3         6.2270   11.3890   -3.5180 N.ar    3  DC3        -0.1739
     54  C4         7.4780   11.7960   -3.7340 C.ar    3  DC3         0.1759
     55  N4         7.8990   11.8770   -4.9980 N.pl3   3  DC3        -0.1070
     56  C5         8.3460   12.1370   -2.6650 C.ar    3  DC3         0.0566
     57  C6         7.8760   12.0390   -1.4160 C.ar    3  DC3         0.0849
     58  P          7.6590    7.2160    1.5310 P.3     4  DC4         0.2141
     59  OP1        7.4720    6.0480    2.4410 O.3     4  DC4        -0.4373
     60  OP2        8.7790    7.2110    0.5480 O.2     4  DC4        -0.5172
     61  O5'        6.2990    7.4310    0.7170 O.3     4  DC4        -0.3114
     62  C5'        5.0410    7.3610    1.3890 C.3     4  DC4         0.1811
     63  C4'        4.0330    6.6370    0.5480 C.3     4  DC4         0.1746
     64  O4'        3.5130    7.5400   -0.4420 O.3     4  DC4        -0.3327
     65  C3'        4.6270    5.4680   -0.2050 C.3     4  DC4         0.1558
     66  O3'        4.5750    4.2890    0.5880 O.3     4  DC4        -0.3138
     67  C2'        3.7860    5.4130   -1.4740 C.3     4  DC4         0.0866
     68  C1'        3.4980    6.9020   -1.6960 C.3     4  DC4         0.2106
     69  N1         4.5500    7.3210   -2.7520 N.ar    4  DC4        -0.2556
     70  C2         4.1390    7.3810   -4.0890 C.ar    4  DC4         0.3531
     71  O2         2.9360    7.2100   -4.3520 O.2     4  DC4        -0.2443
     72  N3         5.0600    7.6210   -5.0520 N.ar    4  DC4        -0.1739
     73  C4         6.3400    7.7980   -4.7220 C.ar    4  DC4         0.1759
     74  N4         7.2120    8.0320   -5.7050 N.pl3   4  DC4        -0.1070
     75  C5         6.7770    7.7410   -3.3740 C.ar    4  DC4         0.0566
     76  C6         5.8640    7.5030   -2.4250 C.ar    4  DC4         0.0849
     77  P          5.6530    2.9850    0.2460 P.3     5  DG5         0.2141
     78  OP1        5.7380    1.9870    1.3550 O.3     5  DG5        -0.4373
     79  OP2        6.5810    4.1360    0.2300 O.2     5  DG5        -0.5172
     80  O5'        5.8210    2.2230   -1.1460 O.3     5  DG5        -0.3114
     81  C5'        5.1140    1.0220   -1.3860 C.3     5  DG5         0.1811
     82  C4'        4.8300    0.8530   -2.8560 C.3     5  DG5         0.1746
     83  O4'        4.4440    2.1210   -3.4380 O.3     5  DG5        -0.3327
     84  C3'        5.9760    0.4160   -3.7430 C.3     5  DG5         0.1558
     85  O3'        6.1940   -0.9630   -3.6770 O.3     5  DG5        -0.3138
     86  C2'        5.4890    0.8150   -5.1270 C.3     5  DG5         0.0865
     87  C1'        4.7920    2.1350   -4.8250 C.3     5  DG5         0.2094
     88  N9         5.7320    3.2050   -5.1220 N.ar    5  DG5        -0.2713
     89  C8         6.2180    4.0880   -4.1880 C.ar    5  DG5         0.1816
     90  N7         6.8990    5.0700   -4.7120 N.ar    5  DG5        -0.2173
     91  C5         6.8610    4.8250   -6.0730 C.ar    5  DG5         0.1748
     92  C6         7.4260    5.5460   -7.1560 C.ar    5  DG5         0.3023
     93  O6         8.0950    6.5860   -7.1180 O.2     5  DG5        -0.2633
     94  N1         7.1480    4.9470   -8.3810 N.ar    5  DG5        -0.1709
     95  C2         6.4170    3.7950   -8.5430 C.ar    5  DG5         0.2606
     96  N2         6.2540    3.3700   -9.8030 N.pl3   5  DG5        -0.0859
     97  N3         5.8870    3.1130   -7.5460 N.ar    5  DG5        -0.1918
     98  C4         6.1440    3.6760   -6.3470 C.ar    5  DG5         0.1722
     99  P          7.8030   -1.5310   -3.6270 P.3     6  DT6         0.2141
    100  OP1        8.0080   -2.9180   -3.1410 O.3     6  DT6        -0.4373
    101  OP2        8.7400   -0.4620   -3.2080 O.2     6  DT6        -0.5172
    102  O5'        7.7830   -1.5710   -5.2180 O.3     6  DT6        -0.3114
    103  C5'        6.7240   -2.2470   -5.9150 C.3     6  DT6         0.1811
    104  C4'        6.6000   -1.7230   -7.3250 C.3     6  DT6         0.1746
    105  O4'        6.4810   -0.2740   -7.3000 O.3     6  DT6        -0.3327
    106  C3'        7.7830   -1.9420   -8.2510 C.3     6  DT6         0.1558
    107  O3'        7.8050   -3.2760   -8.7560 O.3     6  DT6        -0.3138
    108  C2'        7.5020   -0.9170   -9.3450 C.3     6  DT6         0.0866
    109  C1'        6.9720    0.2570   -8.5230 C.3     6  DT6         0.2106
    110  N1         8.1720    1.2150   -8.2560 N.ar    6  DT6        -0.2559
    111  C2         8.4700    2.1270   -9.2510 C.ar    6  DT6         0.3545
    112  O2         7.9220    2.1240  -10.3400 O.2     6  DT6        -0.2443
    113  N3         9.4380    3.0460   -8.9260 N.ar    6  DT6        -0.1533
    114  C4        10.1230    3.1430   -7.7330 C.ar    6  DT6         0.2804
    115  O4        10.9660    4.0250   -7.5890 O.2     6  DT6        -0.2654
    116  C5         9.7580    2.1610   -6.7510 C.ar    6  DT6         0.0534
    117  C6         8.8200    1.2550   -7.0410 C.ar    6  DT6         0.0824
    118  C7        10.4480    2.1830   -5.4190 C.3     6  DT6         0.0377
    119  P          9.0240   -3.8760   -9.6340 P.3     7  DC7         0.2141
    120  OP1        8.8060   -5.2540  -10.1180 O.2     7  DC7        -0.5172
    121  OP2       10.1630   -3.5600   -8.7430 O.3     7  DC7        -0.4373
    122  O5'        9.1620   -2.9060  -10.8810 O.3     7  DC7        -0.3114
    123  C5'        8.4200   -3.1550  -12.0370 C.3     7  DC7         0.1811
    124  C4'        8.7660   -2.0500  -12.9950 C.3     7  DC7         0.1746
    125  O4'        8.4740   -0.7730  -12.3720 O.3     7  DC7        -0.3327
    126  C3'       10.2490   -1.9630  -13.2880 C.3     7  DC7         0.1558
    127  O3'       10.5740   -2.9420  -14.2270 O.3     7  DC7        -0.3138
    128  C2'       10.2610   -0.5790  -13.9050 C.3     7  DC7         0.0866
    129  C1'        9.4070    0.1600  -12.8800 C.3     7  DC7         0.2106
    130  N1        10.2500    0.7160  -11.8030 N.ar    7  DC7        -0.2556
    131  C2        10.9900    1.8900  -11.9870 C.ar    7  DC7         0.3531
    132  O2        10.9520    2.4540  -13.0940 O.2     7  DC7        -0.2443
    133  N3        11.7250    2.3750  -10.9580 N.ar    7  DC7        -0.1739
    134  C4        11.7370    1.7360   -9.7880 C.ar    7  DC7         0.1759
    135  N4        12.4750    2.2510   -8.8020 N.pl3   7  DC7        -0.1070
    136  C5        10.9940    0.5450   -9.5810 C.ar    7  DC7         0.0566
    137  C6        10.2700    0.0700  -10.6000 C.ar    7  DC7         0.0849
    138  P         12.1350   -3.7630  -14.3110 P.3     8  DA8         0.2141
    139  OP1       11.8530   -5.0720  -14.9570 O.2     8  DA8        -0.5172
    140  OP2       12.6210   -3.6560  -12.9170 O.3     8  DA8        -0.4373
    141  O5'       13.2240   -2.9470  -15.1510 O.3     8  DA8        -0.3114
    142  C5'       12.8660   -2.3060  -16.3650 C.3     8  DA8         0.1811
    143  C4'       13.7580   -1.1240  -16.6480 C.3     8  DA8         0.1746
    144  O4'       13.2940    0.0520  -15.9330 O.3     8  DA8        -0.3327
    145  C3'       15.2000   -1.2830  -16.2100 C.3     8  DA8         0.1558
    146  O3'       15.9640   -2.0170  -17.1350 O.3     8  DA8        -0.3138
    147  C2'       15.6470    0.1570  -16.1210 C.3     8  DA8         0.0865
    148  C1'       14.4100    0.8050  -15.5040 C.3     8  DA8         0.2094
    149  N9        14.5810    0.8180  -13.9350 N.ar    8  DA8        -0.2714
    150  C8        14.1950   -0.0600  -12.9560 C.ar    8  DA8         0.1815
    151  N7        14.5150    0.3240  -11.7430 N.ar    8  DA8        -0.2193
    152  C5        15.1560    1.5380  -11.9390 C.ar    8  DA8         0.1518
    153  C6        15.7360    2.4560  -11.0450 C.ar    8  DA8         0.1919
    154  N6        15.7620    2.2840   -9.7220 N.pl3   8  DA8        -0.1054
    155  N1        16.2940    3.5700  -11.5660 N.ar    8  DA8        -0.2040
    156  C2        16.2660    3.7420  -12.8930 C.ar    8  DA8         0.2016
    157  N3        15.7510    2.9520  -13.8320 N.ar    8  DA8        -0.2048
    158  C4        15.2050    1.8540  -13.2830 C.ar    8  DA8         0.1691
    159  P         16.9000   -2.7840  -16.5710 P.3     9  DC9         0.2141
    160  OP1       16.6320   -3.9340  -17.4700 O.2     9  DC9        -0.5172
    161  OP2       16.7030   -2.9250  -15.1030 O.3     9  DC9        -0.4373
    162  O5'       18.3900   -2.2750  -16.8100 O.3     9  DC9        -0.3114
    163  C5'       18.6670   -0.9240  -17.1560 C.3     9  DC9         0.1811
    164  C4'       19.8920   -0.4340  -16.4180 C.3     9  DC9         0.1746
    165  O4'       19.5300    0.6630  -15.5470 O.3     9  DC9        -0.3327
    166  C3'       20.5280   -1.4300  -15.4750 C.3     9  DC9         0.1558
    167  O3'       21.3640   -2.3310  -16.1430 O.3     9  DC9        -0.3138
    168  C2'       21.2700   -0.5540  -14.4970 C.3     9  DC9         0.0866
    169  C1'       20.2960    0.6030  -14.3570 C.3     9  DC9         0.2106
    170  N1        19.3500    0.3780  -13.2260 N.ar    9  DC9        -0.2556
    171  C2        19.7680    0.7390  -11.9400 C.ar    9  DC9         0.3531
    172  O2        20.8920    1.2480  -11.7970 O.2     9  DC9        -0.2443
    173  N3        18.9370    0.5220  -10.8920 N.ar    9  DC9        -0.1739
    174  C4        17.7390   -0.0280  -11.0920 C.ar    9  DC9         0.1759
    175  N4        16.9550   -0.2230  -10.0290 N.pl3   9  DC9        -0.1070
    176  C5        17.2970   -0.4000  -12.3870 C.ar    9  DC9         0.0566
    177  C6        18.1200   -0.1850  -13.4200 C.ar    9  DC9         0.0849
    178  P         21.2790   -3.6250  -15.6500 P.3    10  DA10        0.2141
    179  OP1       22.0080   -4.5750  -16.5380 O.2    10  DA10       -0.5172
    180  OP2       20.0280   -4.0470  -14.9540 O.3    10  DA10       -0.4373
    181  O5'       22.2740   -3.0480  -14.5370 O.3    10  DA10       -0.3114
    182  C5'       23.5420   -2.4790  -14.8930 C.3    10  DA10        0.1811
    183  C4'       24.2550   -1.9320  -13.6700 C.3    10  DA10        0.1746
    184  O4'       23.4510   -0.9060  -13.0360 O.3    10  DA10       -0.3327
    185  C3'       24.5210   -2.9400  -12.5730 C.3    10  DA10        0.1558
    186  O3'       25.7360   -3.5930  -12.8190 O.3    10  DA10       -0.3138
    187  C2'       24.6120   -2.0720  -11.3370 C.3    10  DA10        0.0865
    188  C1'       23.5410   -1.0340  -11.6330 C.3    10  DA10        0.2094
    189  N9        22.1420   -1.5360  -11.1120 N.ar   10  DA10       -0.2714
    190  C8        21.0360   -1.9820  -11.7880 C.ar   10  DA10        0.1815
    191  N7        20.0090   -2.2360  -11.0130 N.ar   10  DA10       -0.2193
    192  C5        20.4710   -1.9370   -9.7410 C.ar   10  DA10        0.1518
    193  C6        19.8610   -1.9950   -8.4750 C.ar   10  DA10        0.1919
    194  N6        18.6020   -2.3910   -8.2790 N.pl3  10  DA10       -0.1054
    195  N1        20.6000   -1.6280   -7.4070 N.ar   10  DA10       -0.2040
    196  C2        21.8630   -1.2310   -7.6050 C.ar   10  DA10        0.2016
    197  N3        22.5440   -1.1330   -8.7440 N.ar   10  DA10       -0.2048
    198  C4        21.7830   -1.5060   -9.7860 C.ar   10  DA10        0.1691
    199  P         25.7630   -5.1630  -12.9130 P.3    11  DC11        0.2141
    200  OP1       27.0810   -5.5500  -13.4760 O.2    11  DC11       -0.5172
    201  OP2       24.5320   -5.8730  -13.3700 O.3    11  DC11       -0.4373
    202  O5'       25.8110   -5.3230  -11.3390 O.3    11  DC11       -0.3114
    203  C5'       26.8040   -4.6740  -10.5780 C.3    11  DC11        0.1811
    204  C4'       26.5220   -4.8720   -9.1140 C.3    11  DC11        0.1746
    205  O4'       25.4220   -4.0180   -8.7090 O.3    11  DC11       -0.3327
    206  C3'       26.1010   -6.2710   -8.6950 C.3    11  DC11        0.1558
    207  O3'       27.2120   -7.1580   -8.5520 O.3    11  DC11       -0.3138
    208  C2'       25.3510   -6.0010   -7.3940 C.3    11  DC11        0.0866
    209  C1'       24.6910   -4.6470   -7.6800 C.3    11  DC11        0.2106
    210  N1        23.2820   -4.7400   -8.1940 N.ar   11  DC11       -0.2556
    211  C2        22.2370   -4.7230   -7.2630 C.ar   11  DC11        0.3531
    212  O2        22.5000   -4.4780   -6.0730 O.2    11  DC11       -0.2443
    213  N3        20.9750   -4.9740   -7.6840 N.ar   11  DC11       -0.1739
    214  C4        20.7400   -5.2340   -8.9700 C.ar   11  DC11        0.1759
    215  N4        19.4790   -5.4750   -9.3390 N.pl3  11  DC11       -0.1070
    216  C5        21.7850   -5.2560   -9.9290 C.ar   11  DC11        0.0566
    217  C6        23.0300   -5.0070   -9.5090 C.ar   11  DC11        0.0849
    218  P         26.9400   -8.7400   -8.2650 P.3    12  DC12        0.2141
    219  OP1       28.3580   -8.9530   -7.8960 O.3    12  DC12       -0.4373
    220  OP2       26.3480   -9.5240   -9.3750 O.2    12  DC12       -0.5172
    221  O5'       26.0410   -8.9230   -6.9550 O.3    12  DC12       -0.3114
    222  C5'       26.6170   -8.7300   -5.6510 C.3    12  DC12        0.1811
    223  C4'       25.5540   -8.4470   -4.6090 C.3    12  DC12        0.1746
    224  O4'       24.5310   -7.5750   -5.1570 O.3    12  DC12       -0.3327
    225  C3'       24.7030   -9.5890   -4.0820 C.3    12  DC12        0.1558
    226  O3'       25.3880  -10.4040   -3.1420 O.3    12  DC12       -0.3138
    227  C2'       23.6120   -8.8090   -3.3620 C.3    12  DC12        0.0866
    228  C1'       23.3690   -7.6690   -4.3460 C.3    12  DC12        0.2106
    229  N1        22.1670   -8.0800   -5.2030 N.ar   12  DC12       -0.2556
    230  C2        20.8800   -7.9800   -4.6620 C.ar   12  DC12        0.3531
    231  O2        20.7580   -7.7220   -3.4530 O.2    12  DC12       -0.2443
    232  N3        19.8090   -8.1680   -5.4700 N.ar   12  DC12       -0.1739
    233  C4        19.9880   -8.4450   -6.7620 C.ar   12  DC12        0.1759
    234  N4        18.9030   -8.6220   -7.5190 N.pl3  12  DC12       -0.1070
    235  C5        21.2840   -8.5510   -7.3290 C.ar   12  DC12        0.0566
    236  C6        22.3390   -8.3640   -6.5280 C.ar   12  DC12        0.0849
    237  P         24.9480  -11.6050   -3.0310 P.3    13  DT13        0.2141
    238  OP1       26.0320  -12.1800   -2.1840 O.3    13  DT13       -0.4373
    239  OP2       24.8800  -11.9670   -4.4800 O.2    13  DT13       -0.5172
    240  O5'       23.5470  -11.9450   -2.3510 O.3    13  DT13       -0.3114
    241  C5'       23.3550  -11.7640   -0.9450 C.3    13  DT13        0.1811
    242  C4'       21.8910  -11.8340   -0.5950 C.3    13  DT13        0.1746
    243  O4'       21.1950  -10.8270   -1.3740 O.3    13  DT13       -0.3327
    244  C3'       21.1480  -13.1040   -0.9640 C.3    13  DT13        0.1558
    245  O3'       21.2910  -14.1650   -0.0580 O.3    13  DT13       -0.3138
    246  C2'       19.7190  -12.6370   -1.0180 C.3    13  DT13        0.0866
    247  C1'       19.8850  -11.2760   -1.6850 C.3    13  DT13        0.2106
    248  N1        19.7770  -11.4660   -3.1700 N.ar   13  DT13       -0.2559
    249  C2        18.5090  -11.5180   -3.7160 C.ar   13  DT13        0.3545
    250  O2        17.4950  -11.3890   -3.0530 O.2    13  DT13       -0.2443
    251  N3        18.4680  -11.7280   -5.0730 N.ar   13  DT13       -0.1533
    252  C4        19.5450  -11.8890   -5.9210 C.ar   13  DT13        0.2804
    253  O4        19.3490  -12.0690   -7.1200 O.2    13  DT13       -0.2654
    254  C5        20.8270  -11.8240   -5.2790 C.ar   13  DT13        0.0534
    255  C6        20.8960  -11.6200   -3.9600 C.ar   13  DT13        0.0824
    256  C7        22.0600  -11.9880   -6.1170 C.3    13  DT13        0.0377
    257  P         21.5520  -15.6020   -0.6420 P.3    14  DG14        0.2141
    258  OP1       22.1500  -16.1410    0.6090 O.3    14  DG14       -0.4373
    259  OP2       22.0290  -16.1070   -1.9520 O.2    14  DG14       -0.5172
    260  O5'       19.9680  -15.7850   -0.5840 O.3    14  DG14       -0.3114
    261  C5'       19.2370  -15.5080    0.6280 C.3    14  DG14        0.1811
    262  C4'       17.7470  -15.6110    0.3890 C.3    14  DG14        0.1746
    263  O4'       17.3220  -14.5190   -0.4620 O.3    14  DG14       -0.3327
    264  C3'       17.2580  -16.8770   -0.3040 C.3    14  DG14        0.1558
    265  O3'       17.0460  -17.9450    0.6240 O.3    14  DG14       -0.3138
    266  C2'       15.9630  -16.4210   -0.9730 C.3    14  DG14        0.0865
    267  C1'       16.2740  -14.9580   -1.3070 C.3    14  DG14        0.2094
    268  N9        16.6900  -14.7640   -2.6690 N.ar   14  DG14       -0.2713
    269  C8        17.9730  -14.7360   -3.1600 C.ar   14  DG14        0.1816
    270  N7        18.0240  -14.6250   -4.4590 N.ar   14  DG14       -0.2173
    271  C5        16.7000  -14.5740   -4.8520 C.ar   14  DG14        0.1748
    272  C6        16.1240  -14.4580   -6.1430 C.ar   14  DG14        0.3023
    273  O6        16.7010  -14.3730   -7.2350 O.2    14  DG14       -0.2633
    274  N1        14.7330  -14.4450   -6.0940 N.ar   14  DG14       -0.1709
    275  C2        13.9880  -14.5340   -4.9420 C.ar   14  DG14        0.2606
    276  N2        12.6570  -14.5040   -5.0950 N.pl3  14  DG14       -0.0859
    277  N3        14.5090  -14.6430   -3.7360 N.ar   14  DG14       -0.1918
    278  C4        15.8590  -14.6590   -3.7590 C.ar   14  DG14        0.1722
    279  P         16.9060  -19.5110    0.0880 P.3    15  DC15        0.2141
    280  OP1       17.0630  -20.3480    1.2690 O.3    15  DC15       -0.4373
    281  OP2       17.9050  -19.6910   -1.0030 O.2    15  DC15       -0.5172
    282  O5'       15.4960  -19.8920   -0.6200 O.3    15  DC15       -0.3114
    283  C5'       14.3230  -19.9980    0.1740 C.3    15  DC15        0.1811
    284  C4'       13.0670  -20.1320   -0.7300 C.3    15  DC15        0.1746
    285  O4'       12.8370  -18.9290   -1.5070 O.3    15  DC15       -0.3327
    286  C3'       13.0850  -21.2110   -1.7890 C.3    15  DC15        0.1558
    287  O3'       12.8470  -22.4920   -1.2670 O.3    15  DC15       -0.3138
    288  C2'       11.9370  -20.7630   -2.6740 C.3    15  DC15        0.0866
    289  C1'       12.2470  -19.2650   -2.7560 C.3    15  DC15        0.2106
    290  N1        13.2440  -19.0040   -3.8730 N.ar   15  DC15       -0.2556
    291  C2        12.7650  -18.9090   -5.1850 C.ar   15  DC15        0.3531
    292  O2        11.5500  -19.0740   -5.3920 O.2    15  DC15       -0.2443
    293  N3        13.6350  -18.6410   -6.1870 N.ar   15  DC15       -0.1739
    294  C4        14.9300  -18.4720   -5.9190 C.ar   15  DC15        0.1759
    295  N4        15.7510  -18.2100   -6.9390 N.pl3  15  DC15       -0.1070
    296  C5        15.4360  -18.5650   -4.5960 C.ar   15  DC15        0.0566
    297  C6        14.5730  -18.8290   -3.6100 C.ar   15  DC15        0.0849
    298  P         13.5470  -23.8210   -1.9340 P.3    16  DT16        0.2141
    299  OP1       13.4430  -24.9920   -1.0290 O.3    16  DT16       -0.4373
    300  OP2       14.8870  -23.3190   -2.3220 O.2    16  DT16       -0.5172
    301  O5'       12.7350  -24.1430   -3.2670 O.3    16  DT16       -0.3114
    302  C5'       11.3930  -24.6260   -3.2140 C.3    16  DT16        0.1811
    303  C4'       10.8360  -24.7890   -4.6120 C.3    16  DT16        0.1746
    304  O4'       10.7810  -23.4910   -5.2600 O.3    16  DT16       -0.3327
    305  C3'       11.6620  -25.6560   -5.5510 C.3    16  DT16        0.1558
    306  O3'       11.3190  -27.0310   -5.3980 O.3    16  DT16       -0.3138
    307  C2'       11.2520  -25.1260   -6.9210 C.3    16  DT16        0.0866
    308  C1'       11.0930  -23.6310   -6.6350 C.3    16  DT16        0.2106
    309  N1        12.9110  -23.1050   -6.9400 N.ar   16  DT16       -0.2559
    310  C2        13.0990  -22.7570   -8.2640 C.ar   16  DT16        0.3545
    311  O2        12.3850  -23.1620   -9.1650 O.2    16  DT16       -0.2443
    312  N3        14.1590  -21.9150   -8.4990 N.ar   16  DT16       -0.1542
    313  C4        15.0300  -21.3970   -7.5630 C.ar   16  DT16        0.2678
    314  O4        15.9360  -20.6510   -7.9280 O.3    16  DT16       -0.3048
    315  C5        14.7700  -21.8050   -6.2120 C.ar   16  DT16        0.0523
    316  C6        13.7460  -22.6230   -5.9550 C.ar   16  DT16        0.0824
    317  C7        15.6640  -21.2950   -5.1210 C.3    16  DT16        0.0376
    318  P         12.3920  -28.3810   -4.6570 P.3    17  DC17        0.2141
    319  OP1       12.4190  -29.6490   -5.4170 O.2    17  DC17       -0.5172
    320  OP2       12.1110  -28.3930   -3.2030 O.3    17  DC17       -0.4373
    321  O5'       13.8190  -27.6590   -4.7540 O.3    17  DC17       -0.3114
    322  C5'       14.8400  -27.9390   -3.8010 C.3    17  DC17        0.1811
    323  C4'       16.1890  -28.1260   -4.4560 C.3    17  DC17        0.1746
    324  O4'       16.2320  -29.4180   -5.1150 O.3    17  DC17       -0.3327
    325  C3'       16.5440  -27.1280   -5.5500 C.3    17  DC17        0.1558
    326  O3'       17.1040  -25.9240   -5.0470 O.3    17  DC17       -0.3138
    327  C2'       17.4890  -27.9140   -6.4570 C.3    17  DC17        0.0866
    328  C1'       16.9350  -29.3320   -6.3370 C.3    17  DC17        0.2106
    329  N1        16.0550  -29.7440   -7.3390 N.ar   17  DC17       -0.2556
    330  C2        16.5650  -29.7360   -8.6420 C.ar   17  DC17        0.3531
    331  O2        17.7720  -29.4940   -8.8100 O.2    17  DC17       -0.2443
    332  N3        15.7310  -29.9890   -9.6790 N.ar   17  DC17       -0.1739
    333  C4        14.4410  -30.2420   -9.4510 C.ar   17  DC17        0.1759
    334  N4        13.6570  -30.4870  -10.5040 N.pl3  17  DC17       -0.1070
    335  C5        13.9050  -30.2550   -8.1380 C.ar   17  DC17        0.0566
    336  C6        14.7320  -30.0040   -7.1170 C.ar   17  DC17        0.0849
    337  P         16.5980  -24.4470   -5.4990 P.3    18  DT18        0.2141
    338  OP1       17.5860  -23.6740   -4.7800 O.3    18  DT18       -0.4373
    339  OP2       15.3150  -23.8340   -5.9710 O.2    18  DT18       -0.5172
    340  O5'       17.4250  -25.0340   -6.7250 O.3    18  DT18       -0.3114
    341  C5'       18.5930  -24.2760   -6.8290 C.3    18  DT18        0.1811
    342  C4'       19.1330  -24.3040   -8.2080 C.3    18  DT18        0.1748
    343  O4'       18.6250  -25.4950   -8.7740 O.3    18  DT18       -0.3327
    344  C3'       18.5610  -23.2970   -9.1680 C.3    18  DT18        0.1602
    345  O3'       19.2560  -22.0950   -9.2010 O.3    18  DT18       -0.2710
    346  C2'       18.9180  -23.9590  -10.4650 C.3    18  DT18        0.0867
    347  C1'       18.4100  -25.3380  -10.1680 C.3    18  DT18        0.2106
    348  N1        16.9290  -25.5930  -10.4710 N.ar   18  DT18       -0.2559
    349  C2        16.5090  -25.7690  -11.7760 C.ar   18  DT18        0.3545
    350  O2        17.2620  -25.7020  -12.7310 O.2    18  DT18       -0.2443
    351  N3        15.1670  -26.0250  -11.9250 N.ar   18  DT18       -0.1533
    352  C4        14.2240  -26.1210  -10.9230 C.ar   18  DT18        0.2804
    353  O4        13.0540  -26.3580  -11.2130 O.2    18  DT18       -0.2654
    354  C5        14.7380  -25.9260   -9.5960 C.ar   18  DT18        0.0534
    355  C6        16.0380  -25.6750   -9.4230 C.ar   18  DT18        0.0824
    356  C7        13.7900  -26.0110   -8.4370 C.3    18  DT18        0.0377
    357  P         18.4490  -20.9050   -9.2290 P.3    19  DA19        0.5146
    358  OP1       19.4880  -19.8590   -9.1000 O.2    19  DA19       -0.2240
    359  OP2       17.1990  -20.7860   -8.4500 O.3    19  DA19       -0.0720
    360  O5'       18.0760  -21.0630  -10.7670 O.3    19  DA19       -0.2685
    361  C5'       19.0490  -21.5790  -11.6930 C.3    19  DA19        0.1856
    362  C4'       18.4040  -21.8690  -13.0230 C.3    19  DA19        0.1748
    363  O4'       17.4120  -22.9100  -12.8700 O.3    19  DA19       -0.3327
    364  C3'       17.6620  -20.6980  -13.6380 C.3    19  DA19        0.1558
    365  O3'       18.5780  -19.9130  -14.3960 O.3    19  DA19       -0.3138
    366  C2'       16.6270  -21.3810  -14.5200 C.3    19  DA19        0.0865
    367  C1'       16.3120  -22.6420  -13.7160 C.3    19  DA19        0.2094
    368  N9        15.1590  -22.6250  -12.8840 N.ar   19  DA19       -0.2714
    369  C8        15.1600  -22.5340  -11.5160 C.ar   19  DA19        0.1815
    370  N7        13.9630  -22.4120  -10.9930 N.ar   19  DA19       -0.2193
    371  C5        13.1180  -22.4220  -12.0910 C.ar   19  DA19        0.1518
    372  C6        11.7200  -22.3280  -12.2100 C.ar   19  DA19        0.1919
    373  N6        10.8970  -22.2010  -11.1680 N.pl3  19  DA19       -0.1054
    374  N1        11.1930  -22.3700  -13.4520 N.ar   19  DA19       -0.2040
    375  C2        12.0200  -22.4990  -14.4970 C.ar   19  DA19        0.2016
    376  N3        13.3470  -22.5980  -14.5110 N.ar   19  DA19       -0.2048
    377  C4        13.8400  -22.5520  -13.2630 C.ar   19  DA19        0.1691
    378  P         18.3640  -18.2110  -14.5520 P.3    20  DT20        0.2141
    379  OP1       19.5990  -17.5630  -15.0520 O.2    20  DT20       -0.5172
    380  OP2       17.9680  -18.0680  -13.1320 O.3    20  DT20       -0.4373
    381  O5'       17.0970  -17.6870  -15.3750 O.3    20  DT20       -0.3114
    382  C5'       16.9610  -18.1740  -16.7010 C.3    20  DT20        0.1811
    383  C4'       15.5280  -18.4640  -17.0730 C.3    20  DT20        0.1746
    384  O4'       14.9750  -19.5290  -16.2540 O.3    20  DT20       -0.3327
    385  C3'       14.5460  -17.3240  -16.8820 C.3    20  DT20        0.1558
    386  O3'       14.6530  -16.3410  -17.8920 O.3    20  DT20       -0.3138
    387  C2'       13.2150  -18.0640  -16.8790 C.3    20  DT20        0.0866
    388  C1'       13.5880  -19.3230  -16.0950 C.3    20  DT20        0.2106
    389  N1        13.1680  -19.1460  -14.7340 N.ar   20  DT20       -0.2559
    390  C2        11.8560  -19.1880  -14.3000 C.ar   20  DT20        0.3545
    391  O2        10.9060  -19.2370  -15.0610 O.2    20  DT20       -0.2443
    392  N3        11.6950  -19.1670  -12.9350 N.ar   20  DT20       -0.1533
    393  C4        12.6910  -19.1110  -11.9830 C.ar   20  DT20        0.2804
    394  O4        12.3900  -19.1010  -10.7920 O.2    20  DT20       -0.2654
    395  C5        14.0250  -19.0690  -12.5130 C.ar   20  DT20        0.0534
    396  C6        14.2110  -19.0880  -13.8350 C.ar   20  DT20        0.0824
    397  C7        15.1790  -19.0060  -11.5560 C.3    20  DT20        0.0377
    398  P         14.9040  -14.8880  -17.4650 P.3    21  DT21        0.2141
    399  OP1       14.7620  -13.9210  -18.5960 O.2    21  DT21       -0.5172
    400  OP2       16.1350  -14.8760  -16.6480 O.3    21  DT21       -0.4373
    401  O5'       13.6730  -14.6970  -16.4690 O.3    21  DT21       -0.3114
    402  C5'       12.3590  -14.5850  -16.9790 C.3    21  DT21        0.1811
    403  C4'       11.3530  -15.1100  -15.9880 C.3    21  DT21        0.1746
    404  O4'       11.8520  -16.3170  -15.3630 O.3    21  DT21       -0.3327
    405  C3'       11.0220  -14.2340  -14.7990 C.3    21  DT21        0.1558
    406  O3'       10.1030  -13.2320  -15.1260 O.3    21  DT21       -0.3138
    407  C2'       10.4070  -15.2250  -13.8240 C.3    21  DT21        0.0866
    408  C1'       11.2800  -16.4500  -14.0600 C.3    21  DT21        0.2106
    409  N1        12.3630  -16.4280  -13.0510 N.ar   21  DT21       -0.2559
    410  C2        12.1340  -16.7940  -11.7380 C.ar   21  DT21        0.3545
    411  O2        11.0170  -16.9470  -11.2770 O.2    21  DT21       -0.2443
    412  N3        13.2660  -16.9730  -10.9790 N.ar   21  DT21       -0.1533
    413  C4        14.5740  -16.8270  -11.3920 C.ar   21  DT21        0.2804
    414  O4        15.4860  -17.0240  -10.5930 O.2    21  DT21       -0.2654
    415  C5        14.7290  -16.4450  -12.7670 C.ar   21  DT21        0.0534
    416  C6        13.6460  -16.2640  -13.5280 C.ar   21  DT21        0.0824
    417  C7        16.1150  -16.2600  -13.3110 C.3    21  DT21        0.0377
    418  P         10.4310  -11.9480  -14.6390 P.3    22  DC22        0.2141
    419  OP1        9.6000  -10.9280  -15.3190 O.2    22  DC22       -0.5172
    420  OP2       11.8910  -11.7060  -14.4720 O.3    22  DC22       -0.4373
    421  O5'        9.8020  -12.2230  -13.1940 O.3    22  DC22       -0.3114
    422  C5'        8.4350  -12.6260  -13.0330 C.3    22  DC22        0.1811
    423  C4'        8.1690  -13.0750  -11.6060 C.3    22  DC22        0.1746
    424  O4'        9.0180  -14.2100  -11.2990 O.3    22  DC22       -0.3327
    425  C3'        8.4340  -12.0730  -10.4840 C.3    22  DC22        0.1558
    426  O3'        7.2900  -11.2570  -10.2340 O.3    22  DC22       -0.3138
    427  C2'        8.7000  -12.9800   -9.2890 C.3    22  DC22        0.0866
    428  C1'        9.4120  -14.1620   -9.9420 C.3    22  DC22        0.2106
    429  N1        10.9230  -14.0370   -9.9160 N.ar   22  DC22       -0.2556
    430  C2        11.5790  -14.4200   -8.7400 C.ar   22  DC22        0.3531
    431  O2        10.9060  -14.8820   -7.8030 O.2    22  DC22       -0.2443
    432  N3        12.9230  -14.2770   -8.6580 N.ar   22  DC22       -0.1739
    433  C4        13.6050  -13.7750   -9.6890 C.ar   22  DC22        0.1759
    434  N4        14.9280  -13.6520   -9.5620 N.pl3  22  DC22       -0.1070
    435  C5        12.9590  -13.3810  -10.8890 C.ar   22  DC22        0.0566
    436  C6        11.6310  -13.5240  -10.9660 C.ar   22  DC22        0.0849
    437  P          7.4180   -9.8820   -9.2640 P.3    23  DC23        0.2141
    438  OP1        6.2390   -8.9750   -9.1710 O.3    23  DC23       -0.4373
    439  OP2        8.4570   -9.6230  -10.2890 O.2    23  DC23       -0.5172
    440  O5'        8.1380   -9.9810   -7.8410 O.3    23  DC23       -0.3114
    441  C5'        7.4010  -10.3240   -6.6620 C.3    23  DC23        0.1812
    442  C4'        8.3030  -10.3240   -5.4470 C.3    23  DC23        0.1775
    443  O4'        9.2270  -11.4400   -5.5250 O.3    23  DC23       -0.3326
    444  C3'        9.1800   -9.0950   -5.2930 C.3    23  DC23        0.1859
    445  O3'        8.5130   -8.0180   -4.6440 O.3    23  DC23       -0.2203
    446  C2'       10.3610   -9.6120   -4.4890 C.3    23  DC23        0.0895
    447  C1'       10.4720  -11.0620   -4.9730 C.3    23  DC23        0.2107
    448  N1        11.5390  -11.1220   -6.0070 N.ar   23  DC23       -0.2556
    449  C2        12.8710  -11.2160   -5.5880 C.ar   23  DC23        0.3531
    450  O2        13.1180  -11.1910   -4.3700 O.2    23  DC23       -0.2443
    451  N3        13.8490  -11.3300   -6.5190 N.ar   23  DC23       -0.1739
    452  C4        13.5370  -11.3520   -7.8150 C.ar   23  DC23        0.1759
    453  N4        14.5340  -11.4660   -8.6950 N.pl3  23  DC23       -0.1070
    454  C5        12.1930  -11.2580   -8.2600 C.ar   23  DC23        0.0566
    455  C6        11.2310  -11.1450   -7.3380 C.ar   23  DC23        0.0849
    456  P          8.8800   -6.3110   -5.0730 P.3    24  DT24        0.5411
    457  OP1        7.9300   -5.5370   -4.2330 O.2    24  DT24       -0.2272
    458  OP2        9.6800   -5.6100   -6.1140 O.2    24  DT24       -0.2272
    459  O5'        9.8970   -7.0580   -4.1040 O.3    24  DT24       -0.2722
    460  C5'        9.4300   -7.7750   -2.9680 C.3    24  DT24        0.1850
    461  C4'       10.5830   -8.0790   -2.0530 C.3    24  DT24        0.1748
    462  O4'       11.4200   -9.1210   -2.6320 O.3    24  DT24       -0.3327
    463  C3'       11.5310   -6.9110   -1.8830 C.3    24  DT24        0.1558
    464  O3'       11.0430   -5.9650   -0.9440 O.3    24  DT24       -0.3138
    465  C2'       12.8090   -7.6120   -1.4520 C.3    24  DT24        0.0866
    466  C1'       12.7890   -8.8350   -2.3730 C.3    24  DT24        0.2106
    467  N1        13.6050   -8.5170   -3.5970 N.ar   24  DT24       -0.2559
    468  C2        14.9710   -8.7150   -3.5240 C.ar   24  DT24        0.3545
    469  O2        15.5410   -9.0380   -2.4970 O.2    24  DT24       -0.2443
    470  N3        15.6500   -8.5190   -4.7020 N.ar   24  DT24       -0.1533
    471  C4        15.1130   -8.1530   -5.9190 C.ar   24  DT24        0.2804
    472  O4        15.8530   -8.0170   -6.8900 O.2    24  DT24       -0.2654
    473  C5        13.6900   -7.9660   -5.9130 C.ar   24  DT24        0.0534
    474  C6        13.0040   -8.1490   -4.7820 C.ar   24  DT24        0.0824
    475  C7        13.0110   -7.5660   -7.1900 C.3    24  DT24        0.0377
    476  P         10.9040   -4.4140   -1.3190 P.3    25  DC25        0.2141
    477  OP1       10.5270   -3.3710   -0.3330 O.3    25  DC25       -0.4373
    478  OP2       10.7620   -4.1360   -2.7700 O.2    25  DC25       -0.5172
    479  O5'       12.4170   -4.8430   -1.0400 O.3    25  DC25       -0.3114
    480  C5'       12.7930   -5.4190    0.2080 C.3    25  DC25        0.1811
    481  C4'       14.3000   -5.5310    0.3210 C.3    25  DC25        0.1746
    482  O4'       14.8240   -6.4250   -0.6990 O.3    25  DC25       -0.3327
    483  C3'       15.1070   -4.2600    0.1160 C.3    25  DC25        0.1558
    484  O3'       15.0990   -3.4480    1.2860 O.3    25  DC25       -0.3138
    485  C2'       16.5000   -4.8220   -0.1570 C.3    25  DC25        0.0866
    486  C1'       16.1770   -6.0810   -0.9640 C.3    25  DC25        0.2106
    487  N1        16.3650   -6.0230   -2.3880 N.ar   25  DC25       -0.2556
    488  C2        17.6650   -6.0480   -2.9060 C.ar   25  DC25        0.3531
    489  O2        18.6150   -6.2340   -2.1280 O.2    25  DC25       -0.2443
    490  N3        17.8480   -5.8680   -4.2360 N.ar   25  DC25       -0.1739
    491  C4        16.7980   -5.6700   -5.0340 C.ar   25  DC25        0.1759
    492  N4        17.0280   -5.4970   -6.3380 N.pl3  25  DC25       -0.1070
    493  C5        15.4730   -5.6410   -4.5280 C.ar   25  DC25        0.0566
    494  C6        15.2960   -5.8200   -3.2150 C.ar   25  DC25        0.0849
    495  P         15.2270   -1.8370    1.2520 P.3    26  DT26        0.2141
    496  OP1       14.8850   -1.9670    2.6940 O.3    26  DT26       -0.4373
    497  OP2       14.4350   -1.0300    0.2880 O.2    26  DT26       -0.5172
    498  O5'       16.7170   -1.2830    1.0700 O.3    26  DT26       -0.3114
    499  C5'       17.7680   -1.7960    1.8570 C.3    26  DT26        0.1811
    500  C4'       18.9970   -1.9820    0.9910 C.3    26  DT26        0.1746
    501  O4'       18.6760   -2.8310   -0.1390 O.3    26  DT26       -0.3327
    502  C3'       19.5410   -0.7440    0.3030 C.3    26  DT26        0.1558
    503  O3'       20.2230    0.0900    1.2270 O.3    26  DT26       -0.3138
    504  C2'       20.5280   -1.4600   -0.6020 C.3    26  DT26        0.0866
    505  C1'       19.6690   -2.6060   -1.1210 C.3    26  DT26        0.2106
    506  N1        19.0270   -2.1850   -2.4130 N.ar   26  DT26       -0.2559
    507  C2        19.7420   -2.1350   -3.5950 C.ar   26  DT26        0.3545
    508  O2        20.9560   -2.2280   -3.6420 O.2    26  DT26       -0.2443
    509  N3        18.9810   -1.9680   -4.7270 N.ar   26  DT26       -0.1533
    510  C4        17.6090   -1.8500   -4.7950 C.ar   26  DT26        0.2804
    511  O4        17.0670   -1.7060   -5.8880 O.2    26  DT26       -0.2654
    512  C5        16.9390   -1.9110   -3.5260 C.ar   26  DT26        0.0534
    513  C6        17.6540   -2.0720   -2.4100 C.ar   26  DT26        0.0824
    514  C7        15.4440   -1.7910   -3.4940 C.3    26  DT26        0.0377
    515  P         20.2120    1.7690    1.0470 P.3    27  DG27        0.2141
    516  OP1       20.7380    2.5110    2.2180 O.3    27  DG27       -0.4373
    517  OP2       18.7830    1.9090    0.6750 O.2    27  DG27       -0.5172
    518  O5'       21.0760    2.1490   -0.2370 O.3    27  DG27       -0.3114
    519  C5'       22.3680    2.7300   -0.0970 C.3    27  DG27        0.1811
    520  C4'       23.0600    2.8240   -1.4390 C.3    27  DG27        0.1746
    521  O4'       22.8560    1.6100   -2.2150 O.3    27  DG27       -0.3327
    522  C3'       22.6050    3.9180   -2.3910 C.3    27  DG27        0.1558
    523  O3'       23.1440    5.1830   -2.0220 O.3    27  DG27       -0.3138
    524  C2'       23.2250    3.4150   -3.6850 C.3    27  DG27        0.0865
    525  C1'       22.8710    1.9290   -3.6020 C.3    27  DG27        0.2094
    526  N9        21.4810    1.6590   -4.1480 N.ar   27  DG27       -0.2713
    527  C8        20.3170    1.3780   -3.4730 C.ar   27  DG27        0.1816
    528  N7        19.3010    1.1680   -4.2640 N.ar   27  DG27       -0.2173
    529  C5        19.8200    1.3150   -5.5360 C.ar   27  DG27        0.1748
    530  C6        19.1960    1.2070   -6.8060 C.ar   27  DG27        0.3023
    531  O6        18.0130    0.9480   -7.0590 O.2    27  DG27       -0.2633
    532  N1        20.0920    1.4350   -7.8470 N.ar   27  DG27       -0.1709
    533  C2        21.4240    1.7310   -7.6850 C.ar   27  DG27        0.2606
    534  N2        22.1290    1.9170   -8.8090 N.pl3  27  DG27       -0.0859
    535  N3        22.0180    1.8350   -6.5120 N.ar   27  DG27       -0.1918
    536  C4        21.1670    1.6190   -5.4870 C.ar   27  DG27        0.1722
    537  P         22.4920    6.2360   -2.4220 P.3    28  DT28        0.2141
    538  OP1       23.1960    7.2950   -1.6990 O.3    28  DT28       -0.4373
    539  OP2       21.1160    5.9950   -1.9730 O.2    28  DT28       -0.5172
    540  O5'       22.5590    6.5710   -3.9930 O.3    28  DT28       -0.3114
    541  C5'       23.7720    7.0040   -4.6550 C.3    28  DT28        0.1811
    542  C4'       23.6350    7.1410   -6.1650 C.3    28  DT28        0.1746
    543  O4'       23.3280    5.8410   -6.7310 O.3    28  DT28       -0.3327
    544  C3'       22.4760    7.9880   -6.6720 C.3    28  DT28        0.1558
    545  O3'       22.8090    9.3320   -6.7220 O.3    28  DT28       -0.3138
    546  C2'       22.2050    7.4070   -8.0590 C.3    28  DT28        0.0866
    547  C1'       22.3370    5.9380   -7.7410 C.3    28  DT28        0.2106
    548  N1        21.0420    5.2860   -7.3240 N.ar   28  DT28       -0.2559
    549  C2        20.2460    4.8760   -8.3760 C.ar   28  DT28        0.3545
    550  O2        20.5210    5.0970   -9.5420 O.2    28  DT28       -0.2443
    551  N3        19.1100    4.1940   -8.0140 N.ar   28  DT28       -0.1533
    552  C4        18.6980    3.8890   -6.7330 C.ar   28  DT28        0.2804
    553  O4        17.6510    3.2690   -6.5660 O.2    28  DT28       -0.2654
    554  C5        19.5770    4.3500   -5.6960 C.ar   28  DT28        0.0534
    555  C6        20.6890    5.0150   -6.0200 C.ar   28  DT28        0.0824
    556  C7        19.2160    4.0680   -4.2680 C.3    28  DT28        0.0377
    557  P         21.5580   10.3810   -6.4940 P.3    29  DT29        0.2141
    558  OP1       21.9510   11.7880   -6.2100 O.2    29  DT29       -0.5172
    559  OP2       20.8270    9.5790   -5.4730 O.3    29  DT29       -0.4373
    560  O5'       20.8020   10.2740   -7.9010 O.3    29  DT29       -0.3114
    561  C5'       21.1300   11.1640   -8.9770 C.3    29  DT29        0.1811
    562  C4'       20.6030   10.6650  -10.3230 C.3    29  DT29        0.1746
    563  O4'       20.7930    9.2190  -10.4590 O.3    29  DT29       -0.3327
    564  C3'       19.1250   10.8620  -10.6450 C.3    29  DT29        0.1558
    565  O3'       18.7710   12.1870  -11.0530 O.3    29  DT29       -0.3138
    566  C2'       18.8960    9.8280  -11.7470 C.3    29  DT29        0.0866
    567  C1'       19.7460    8.6650  -11.2550 C.3    29  DT29        0.2106
    568  N1        18.8900    7.7800  -10.4020 N.ar   29  DT29       -0.2559
    569  C2        18.2520    6.7300  -11.0340 C.ar   29  DT29        0.3545
    570  O2        18.3250    6.5330  -12.2340 O.2    29  DT29       -0.2443
    571  N3        17.5190    5.9140  -10.2060 N.ar   29  DT29       -0.1533
    572  C4        17.3640    6.0400   -8.8420 C.ar   29  DT29        0.2804
    573  O4        16.6730    5.2260   -8.2340 O.2    29  DT29       -0.2654
    574  C5        18.0560    7.1550   -8.2600 C.ar   29  DT29        0.0534
    575  C6        18.7760    7.9650   -9.0420 C.ar   29  DT29        0.0824
    576  C7        17.9490    7.3780   -6.7810 C.3    29  DT29        0.0377
    577  P         17.2010   12.7320  -10.8490 P.3    30  DG30        0.2141
    578  OP1       17.2460   14.1310  -11.3520 O.2    30  DG30       -0.5172
    579  OP2       16.4880   12.4370   -9.5820 O.3    30  DG30       -0.4373
    580  O5'       16.6160   11.7480  -11.9670 O.3    30  DG30       -0.3114
    581  C5'       17.1720   11.6900  -13.2870 C.3    30  DG30        0.1811
    582  C4'       16.4330   10.6700  -14.1360 C.3    30  DG30        0.1746
    583  O4'       16.8000    9.3260  -13.7290 O.3    30  DG30       -0.3327
    584  C3'       14.9050   10.6960  -14.0730 C.3    30  DG30        0.1558
    585  O3'       14.3300   11.6720  -14.9500 O.3    30  DG30       -0.3138
    586  C2'       14.5240    9.2720  -14.4710 C.3    30  DG30        0.0865
    587  C1'       15.6940    8.4550  -13.9130 C.3    30  DG30        0.2094
    588  N9        15.4520    7.8750  -12.6370 N.ar   30  DG30       -0.2713
    589  C8        15.9040    8.2160  -11.3860 C.ar   30  DG30        0.1816
    590  N7        15.3300    7.5390  -10.4290 N.ar   30  DG30       -0.2173
    591  C5        14.4480    6.7000  -11.0830 C.ar   30  DG30        0.1748
    592  C6        13.5450    5.7310  -10.5740 C.ar   30  DG30        0.3023
    593  O6        13.3450    5.4170   -9.3940 O.2    30  DG30       -0.2633
    594  N1        12.8320    5.1000  -11.5890 N.ar   30  DG30       -0.1709
    595  C2        12.9720    5.3680  -12.9290 C.ar   30  DG30        0.2606
    596  N2        12.1980    4.6550  -13.7590 N.pl3  30  DG30       -0.0859
    597  N3        13.8060    6.2650  -13.4170 N.ar   30  DG30       -0.1918
    598  C4        14.5080    6.8910  -12.4500 C.ar   30  DG30        0.1722
    599  P         12.7850   12.2610  -14.7060 P.3    31  DA31        0.2141
    600  OP1       13.0300   13.5710  -15.3700 O.2    31  DA31       -0.5172
    601  OP2       12.5000   12.2140  -13.2470 O.3    31  DA31       -0.4373
    602  O5'       11.6520   11.4610  -15.4710 O.3    31  DA31       -0.3114
    603  C5'       11.9870   10.7290  -16.6320 C.3    31  DA31        0.1811
    604  C4'       11.3840    9.3630  -16.5670 C.3    31  DA31        0.1746
    605  O4'       12.1020    8.5290  -15.6330 O.3    31  DA31       -0.3327
    606  C3'        9.9930    9.3440  -15.9880 C.3    31  DA31        0.1558
    607  O3'        9.0510    9.7670  -16.9350 O.3    31  DA31       -0.3138
    608  C2'        9.8190    7.8850  -15.6330 C.3    31  DA31        0.0865
    609  C1'       11.2180    7.5470  -15.1190 C.3    31  DA31        0.2094
    610  N9        11.1490    7.6270  -13.7020 N.ar   31  DA31       -0.2714
    611  C8        11.7250    8.6340  -12.9730 C.ar   31  DA31        0.1815
    612  N7        11.6320    8.4680  -11.6750 N.ar   31  DA31       -0.2193
    613  C5        10.9460    7.2700  -11.5430 C.ar   31  DA31        0.1518
    614  C6        10.5280    6.5390  -10.4170 C.ar   31  DA31        0.1919
    615  N6        10.7530    6.9250   -9.1590 N.pl3  31  DA31       -0.1054
    616  N1         9.8650    5.3830  -10.6320 N.ar   31  DA31       -0.2040
    617  C2         9.6410    4.9960  -11.8930 C.ar   31  DA31        0.2016
    618  N3         9.9840    5.5970  -13.0300 N.ar   31  DA31       -0.2048
    619  C4        10.6410    6.7420  -12.7820 C.ar   31  DA31        0.1691
    620  P          7.9000   10.8110  -16.5100 P.3    32  DA32        0.2141
    621  OP1        7.2270   11.2030  -17.7750 O.2    32  DA32       -0.5172
    622  OP2        8.5670   11.8440  -15.6790 O.3    32  DA32       -0.4373
    623  O5'        6.8490   10.0350  -15.5950 O.3    32  DA32       -0.3114
    624  C5'        5.9740    9.0420  -16.1570 C.3    32  DA32        0.1811
    625  C4'        5.0830    8.4530  -15.0860 C.3    32  DA32        0.1746
    626  O4'        5.8640    7.6400  -14.1750 O.3    32  DA32       -0.3327
    627  C3'        4.3470    9.4390  -14.1880 C.3    32  DA32        0.1558
    628  O3'        3.1500    9.9050  -14.8130 O.3    32  DA32       -0.3138
    629  C2'        4.0580    8.6100  -12.9340 C.3    32  DA32        0.0865
    630  C1'        5.2420    7.6380  -12.9030 C.3    32  DA32        0.2094
    631  N9         6.2010    7.8900  -11.9490 N.ar   32  DA32       -0.2714
    632  C8         7.3280    8.6600  -12.0660 C.ar   32  DA32        0.1815
    633  N7         7.9390    8.8800  -10.9260 N.ar   32  DA32       -0.2193
    634  C5         7.1600    8.2090   -9.9970 C.ar   32  DA32        0.1518
    635  C6         7.2710    8.0540   -8.6040 C.ar   32  DA32        0.1919
    636  N6         8.2550    8.5890   -7.8770 N.pl3  32  DA32       -0.1054
    637  N1         6.3250    7.3230   -7.9770 N.ar   32  DA32       -0.2040
    638  C2         5.3390    6.7870   -8.7070 C.ar   32  DA32        0.2016
    639  N3         5.1290    6.8620  -10.0190 N.ar   32  DA32       -0.2048
    640  C4         6.0850    7.5950  -10.6120 C.ar   32  DA32        0.1691
    641  P          2.3880   11.2800  -14.2560 P.3    33  DG33        0.2141
    642  OP1        1.6730   11.1920  -15.5560 O.2    33  DG33       -0.5172
    643  OP2        3.2510   12.4530  -13.9770 O.3    33  DG33       -0.4373
    644  O5'        1.3070   11.1830  -13.0930 O.3    33  DG33       -0.3114
    645  C5'        0.3780   10.1040  -13.0580 C.3    33  DG33        0.1811
    646  C4'        0.2390    9.5680  -11.6520 C.3    33  DG33        0.1746
    647  O4'        1.5010    9.0060  -11.2120 O.3    33  DG33       -0.3327
    648  C3'       -0.0840   10.5780  -10.5640 C.3    33  DG33        0.1558
    649  O3'       -1.4690   10.8840  -10.5330 O.3    33  DG33       -0.3138
    650  C2'        0.3330    9.8210   -9.3110 C.3    33  DG33        0.0865
    651  C1'        1.5960    9.1070   -9.7980 C.3    33  DG33        0.2094
    652  N9         2.8280    9.8610   -9.4780 N.ar   33  DG33       -0.2713
    653  C8         3.7870   10.1490  -10.4180 C.ar   33  DG33        0.1816
    654  N7         4.8770   10.6530   -9.9060 N.ar   33  DG33       -0.2173
    655  C5         4.6270   10.7000   -8.5470 C.ar   33  DG33        0.1748
    656  C6         5.4370   11.1530   -7.4740 C.ar   33  DG33        0.3023
    657  O6         6.5830   11.6180   -7.5230 O.2    33  DG33       -0.2633
    658  N1         4.7940   11.0250   -6.2460 N.ar   33  DG33       -0.1709
    659  C2         3.5260   10.5230   -6.0730 C.ar   33  DG33        0.2606
    660  N2         3.0760   10.4770   -4.8120 N.pl3  33  DG33       -0.0859
    661  N3         2.7610   10.0990   -7.0590 N.ar   33  DG33       -0.1918
    662  C4         3.3650   10.2150   -8.2620 C.ar   33  DG33        0.1722
    663  P         -1.8050   12.1990  -10.3480 P.3    34  DA34        0.2141
    664  OP1       -3.2850   12.2320  -10.4540 O.3    34  DA34       -0.4373
    665  OP2       -1.0470   13.2960  -11.0150 O.2    34  DA34       -0.5172
    666  O5'       -1.4570   12.1110   -8.7870 O.3    34  DA34       -0.3114
    667  C5'       -2.4630   11.6380   -7.9100 C.3    34  DA34        0.1811
    668  C4'       -2.1800   12.0150   -6.4760 C.3    34  DA34        0.1746
    669  O4'       -0.9190   11.4000   -6.0590 O.3    34  DA34       -0.3327
    670  C3'       -2.0350   13.5170   -6.2110 C.3    34  DA34        0.1558
    671  O3'       -3.2850   14.2560   -6.1050 O.3    34  DA34       -0.3138
    672  C2'       -1.1680   13.4920   -4.9470 C.3    34  DA34        0.0865
    673  C1'       -0.1840   12.3400   -5.2820 C.3    34  DA34        0.2094
    674  N9         1.0290   12.7750   -6.0070 N.ar   34  DA34       -0.2714
    675  C8         1.2370   12.7730   -7.3620 C.ar   34  DA34        0.1815
    676  N7         2.4280   13.1980   -7.7140 N.ar   34  DA34       -0.2193
    677  C5         3.0420   13.5000   -6.5090 C.ar   34  DA34        0.1518
    678  C6         4.3200   13.9970   -6.1980 C.ar   34  DA34        0.1919
    679  N6         5.2450   14.2860   -7.1160 N.pl3  34  DA34       -0.1054
    680  N1         4.6180   14.1870   -4.8950 N.ar   34  DA34       -0.2040
    681  C2         3.6910   13.8960   -3.9750 C.ar   34  DA34        0.2016
    682  N3         2.4580   13.4240   -4.1440 N.ar   34  DA34       -0.2048
    683  C4         2.1930   13.2460   -5.4490 C.ar   34  DA34        0.1691
    684  P         -3.5030   15.7850   -7.0210 P.3    35  DA35        0.2141
    685  OP1       -4.9280   16.1770   -7.0440 O.3    35  DA35       -0.4373
    686  OP2       -2.6310   16.0940   -8.1770 O.2    35  DA35       -0.5172
    687  O5'       -2.8470   16.3960   -5.6910 O.3    35  DA35       -0.3114
    688  C5'       -3.6050   16.4520   -4.4870 C.3    35  DA35        0.1811
    689  C4'       -2.7050   16.5240   -3.2660 C.3    35  DA35        0.1746
    690  O4'       -1.6000   15.6080   -3.4440 O.3    35  DA35       -0.3327
    691  C3'       -2.0220   17.8580   -3.0040 C.3    35  DA35        0.1558
    692  O3'       -2.8770   18.7590   -2.3120 O.3    35  DA35       -0.3138
    693  C2'       -0.8740   17.4150   -2.1070 C.3    35  DA35        0.0865
    694  C1'       -0.4600   16.1140   -2.7830 C.3    35  DA35        0.2094
    695  N9         0.6010   16.3390   -3.7210 N.ar   35  DA35       -0.2714
    696  C8         0.4750   16.3560   -5.0860 C.ar   35  DA35        0.1815
    697  N7         1.6170   16.4810   -5.7210 N.ar   35  DA35       -0.2193
    698  C5         2.5560   16.5520   -4.7040 C.ar   35  DA35        0.1518
    699  C6         3.9550   16.6890   -4.7170 C.ar   35  DA35        0.1919
    700  N6         4.6790   16.7820   -5.8350 N.pl3  35  DA35       -0.1054
    701  N1         4.5910   16.7280   -3.5260 N.ar   35  DA35       -0.2040
    702  C2         3.8650   16.6340   -2.4070 C.ar   35  DA35        0.2016
    703  N3         2.5480   16.5020   -2.2670 N.ar   35  DA35       -0.2048
    704  C4         1.9450   16.4670   -3.4670 C.ar   35  DA35        0.1691
    705  P         -2.5830   19.9450   -2.4550 P.3    36  DC36        0.2141
    706  OP1       -3.7710   20.0380   -1.5820 O.3    36  DC36       -0.4373
    707  OP2       -2.1860   21.1090   -3.2550 O.2    36  DC36       -0.5172
    708  O5'       -1.3960   19.5290   -1.4690 O.3    36  DC36       -0.3114
    709  C5'       -1.5260   19.6650   -0.0140 C.3    36  DC36        0.1811
    710  C4'       -0.1550   19.5010    0.7180 C.3    36  DC36        0.1746
    711  O4'        0.6690   18.5030    0.0400 O.3    36  DC36       -0.3327
    712  C3'        0.7750   20.7210    0.8820 C.3    36  DC36        0.1558
    713  O3'        0.5060   21.4040    2.1020 O.3    36  DC36       -0.3138
    714  C2'        2.1600   20.0860    1.0200 C.3    36  DC36        0.0866
    715  C1'        2.0320   18.8920    0.0730 C.3    36  DC36        0.2106
    716  N1         2.4890   19.0750   -1.3270 N.ar   36  DC36       -0.2556
    717  C2         3.8600   18.9090   -1.5550 C.ar   36  DC36        0.3531
    718  O2         4.5770   18.5080   -0.6230 O.2    36  DC36       -0.2443
    719  N3         4.3630   19.1910   -2.7810 N.ar   36  DC36       -0.1739
    720  C4         3.5550   19.6200   -3.7510 C.ar   36  DC36        0.1759
    721  N4         4.0960   19.8860   -4.9430 N.pl3  36  DC36       -0.1070
    722  C5         2.1630   19.7950   -3.5400 C.ar   36  DC36        0.0566
    723  C6         1.6710   19.5150   -2.3280 C.ar   36  DC36        0.0849
    724  P          1.1480   22.9780    2.4600 P.3    37  DC37        0.2141
    725  OP1        0.4210   24.2680    2.3430 O.3    37  DC37       -0.4373
    726  OP2        2.1360   22.5900    1.4200 O.2    37  DC37       -0.5172
    727  O5'        1.9270   22.9600    3.8370 O.3    37  DC37       -0.3114
    728  C5'        3.2980   23.2970    3.8850 C.3    37  DC37        0.1811
    729  C4'        3.9180   22.7220    5.1240 C.3    37  DC37        0.1746
    730  O4'        3.2160   23.2430    6.2860 O.3    37  DC37       -0.3327
    731  C3'        3.8000   21.2180    5.2740 C.3    37  DC37        0.1558
    732  O3'        4.7850   20.5850    4.4530 O.3    37  DC37       -0.3138
    733  C2'        3.9870   21.0800    6.7760 C.3    37  DC37        0.0866
    734  C1'        3.1220   22.2380    7.2790 C.3    37  DC37        0.2106
    735  N1         2.2410   22.3420    8.1710 N.ar   37  DC37       -0.2556
    736  C2         1.0380   22.2230    7.4650 C.ar   37  DC37        0.3531
    737  O2         1.0660   22.2790    6.2240 O.2    37  DC37       -0.2443
    738  N3        -0.1160   22.0530    8.1530 N.ar   37  DC37       -0.1739
    739  C4        -0.0970   22.0000    9.4860 C.ar   37  DC37        0.1759
    740  N4        -1.2590   21.8310   10.1200 N.pl3  37  DC37       -0.1070
    741  C5         1.1110   22.1180   10.2190 C.ar   37  DC37        0.0566
    742  C6         2.2490   22.2860    9.5370 C.ar   37  DC37        0.0849
    743  P          5.2440   18.8920    4.8070 P.3    38  DA38        0.2141
    744  OP1        6.6330   19.4200    4.7690 O.3    38  DA38       -0.4373
    745  OP2        4.8030   17.9350    3.7580 O.2    38  DA38       -0.5172
    746  O5'        5.0080   18.2040    6.2220 O.3    38  DA38       -0.3114
    747  C5'        3.9140   17.3330    6.3590 C.3    38  DA38        0.1811
    748  C4'        4.0430   16.4950    7.5860 C.3    38  DA38        0.1746
    749  O4'        4.0020   17.3410    8.7620 O.3    38  DA38       -0.3327
    750  C3'        2.8240   15.6020    7.6790 C.3    38  DA38        0.1558
    751  O3'        3.0960   14.3730    7.0530 O.3    38  DA38       -0.3138
    752  C2'        2.5680   15.5130    9.1650 C.3    38  DA38        0.0865
    753  C1'        2.9470   16.9290    9.5990 C.3    38  DA38        0.2094
    754  N9         1.8830   17.7510    9.5270 N.ar   38  DA38       -0.2714
    755  C8         1.4160   18.5310    8.5020 C.ar   38  DA38        0.1815
    756  N7         0.2290   19.0440    8.7260 N.ar   38  DA38       -0.2193
    757  C5        -0.1060   18.5670    9.9840 C.ar   38  DA38        0.1518
    758  C6        -1.2420   18.7490   10.7930 C.ar   38  DA38        0.1919
    759  N6        -2.2920   19.4930   10.4360 N.pl3  38  DA38       -0.1054
    760  N1        -1.2610   18.1330   11.9940 N.ar   38  DA38       -0.2040
    761  C2        -0.2080   17.3880   12.3500 C.ar   38  DA38        0.2016
    762  N3         0.9150   17.1430   11.6780 N.ar   38  DA38       -0.2048
    763  C4         0.9020   17.7690   10.4890 C.ar   38  DA38        0.1691
    764  P          1.8340   13.1520    6.9650 P.3    39  DC39        0.2141
    765  OP1        2.3200   11.8980    6.3460 O.2    39  DC39       -0.5172
    766  OP2        0.6930   13.8710    6.3530 O.3    39  DC39       -0.4373
    767  O5'        1.3510   12.9140    8.4770 O.3    39  DC39       -0.3114
    768  C5'        2.2480   12.4880    9.4960 C.3    39  DC39        0.1811
    769  C4'        1.6480   12.5490   10.8850 C.3    39  DC39        0.1746
    770  O4'        1.5110   13.9230   11.3300 O.3    39  DC39       -0.3327
    771  C3'        0.2470   11.9910   11.0490 C.3    39  DC39        0.1558
    772  O3'        0.2090   10.5820   11.1190 O.3    39  DC39       -0.3138
    773  C2'       -0.2220   12.6660   12.3280 C.3    39  DC39        0.0866
    774  C1'        0.3600   14.0610   12.1340 C.3    39  DC39        0.2106
    775  N1        -0.7480   14.9110   11.5390 N.ar   39  DC39       -0.2556
    776  C2        -1.7260   15.4150   12.4050 C.ar   39  DC39        0.3531
    777  O2        -1.6430   15.1550   13.6170 O.2    39  DC39       -0.2443
    778  N3        -2.7310   16.1680   11.8970 N.ar   39  DC39       -0.1739
    779  C4        -2.7810   16.4200   10.5890 C.ar   39  DC39        0.1759
    780  N4        -3.7900   17.1660   10.1340 N.pl3  39  DC39       -0.1070
    781  C5        -1.8000   15.9180    9.6950 C.ar   39  DC39        0.0566
    782  C6        -0.8090   15.1760   10.2000 C.ar   39  DC39        0.0849
    783  P         -0.8680    9.9340   10.2910 P.3    40  DT40        0.2141
    784  OP1       -0.5050    8.6060    9.7590 O.3    40  DT40       -0.4373
    785  OP2       -1.4460   10.9500    9.3810 O.2    40  DT40       -0.5172
    786  O5'       -1.9020    9.7500   11.4920 O.3    40  DT40       -0.3114
    787  C5'       -1.5210    9.0970   12.7180 C.3    40  DT40        0.1811
    788  C4'       -2.3040    9.6620   13.8880 C.3    40  DT40        0.1746
    789  O4'       -2.1080   11.1030   13.9560 O.3    40  DT40       -0.3327
    790  C3'       -3.8190    9.5150   13.8550 C.3    40  DT40        0.1558
    791  O3'       -4.2480    8.2230   14.2770 O.3    40  DT40       -0.3138
    792  C2'       -4.2500   10.5870   14.8440 C.3    40  DT40        0.0866
    793  C1'       -3.2670   11.7120   14.5090 C.3    40  DT40        0.2106
    794  N1        -3.8520   12.6490   13.5040 N.ar   40  DT40       -0.2559
    795  C2        -4.4690   13.7960   13.9670 C.ar   40  DT40        0.3545
    796  O2        -4.5350   14.0840   15.1490 O.2    40  DT40       -0.2443
    797  N3        -5.0120   14.5980   12.9920 N.ar   40  DT40       -0.1533
    798  C4        -4.9990   14.3740   11.6310 C.ar   40  DT40        0.2804
    799  O4        -5.5280   15.1880   10.8790 O.2    40  DT40       -0.2654
    800  C5        -4.3410   13.1630   11.2290 C.ar   40  DT40        0.0534
    801  C6        -3.8050   12.3640   12.1570 C.ar   40  DT40        0.0824
    802  C7        -4.2750   12.8300    9.7680 C.3    40  DT40        0.0377
    803  P         -5.8120    7.6970   13.9410 P.3    41  DT41        0.2141
    804  OP1       -5.6280    6.2360   14.1070 O.3    41  DT41       -0.4373
    805  OP2       -6.1190    8.2680   12.6110 O.2    41  DT41       -0.5172
    806  O5'       -7.0020    8.2090   14.8770 O.3    41  DT41       -0.3114
    807  C5'       -6.8780    7.9980   16.2740 C.3    41  DT41        0.1811
    808  C4'       -7.6070    9.0450   17.0720 C.3    41  DT41        0.1746
    809  O4'       -7.1630   10.3660   16.6810 O.3    41  DT41       -0.3327
    810  C3'       -9.1150    9.0990   16.8910 C.3    41  DT41        0.1558
    811  O3'       -9.7860    8.1050   17.6420 O.3    41  DT41       -0.3138
    812  C2'       -9.4520   10.5140   17.3410 C.3    41  DT41        0.0866
    813  C1'       -8.2070   11.2900   16.9110 C.3    41  DT41        0.2106
    814  N1        -8.4320   12.0440   15.7390 N.ar   41  DT41       -0.2559
    815  C2        -9.2120   13.1830   15.8180 C.ar   41  DT41        0.3545
    816  O2        -9.7350   13.5590   16.8520 O.2    41  DT41       -0.2443
    817  N3        -9.3580   13.8700   14.6370 N.ar   41  DT41       -0.1533
    818  C4        -8.8160   13.5400   13.4130 C.ar   41  DT41        0.2804
    819  O4        -9.0360   14.2580   12.4410 O.2    41  DT41       -0.2654
    820  C5        -8.0200   12.3440   13.4120 C.ar   41  DT41        0.0534
    821  C6        -7.8620   11.6570   14.5460 C.ar   41  DT41        0.0824
    822  C7        -7.3870   11.9000   12.1270 C.3    41  DT41        0.0377
    823  P        -11.4360    7.9610   17.4560 P.3    42  DC42        0.2141
    824  OP1      -12.0980    6.8960   18.2400 O.3    42  DC42       -0.4373
    825  OP2      -10.9700    7.6930   16.0780 O.2    42  DC42       -0.5172
    826  O5'      -12.4220    9.2160   17.3060 O.3    42  DC42       -0.3114
    827  C5'      -13.1100    9.7190   18.4440 C.3    42  DC42        0.1811
    828  C4'      -13.8620   10.9990   18.1570 C.3    42  DC42        0.1746
    829  O4'      -12.9660   11.9960   17.6000 O.3    42  DC42       -0.3327
    830  C3'      -15.0030   10.9160   17.1520 C.3    42  DC42        0.1558
    831  O3'      -16.2030   10.4120   17.7210 O.3    42  DC42       -0.3138
    832  C2'      -15.1300   12.3580   16.6800 C.3    42  DC42        0.0866
    833  C1'      -13.6790   12.8410   16.7190 C.3    42  DC42        0.2106
    834  N1       -12.9300   12.8630   15.4050 N.ar   42  DC42       -0.2556
    835  C2       -13.0930   14.0280   14.6470 C.ar   42  DC42        0.3531
    836  O2       -13.7300   14.9760   15.1380 O.2    42  DC42       -0.2443
    837  N3       -12.5550   14.0890   13.4060 N.ar   42  DC42       -0.1739
    838  C4       -11.8790   13.0470   12.9200 C.ar   42  DC42        0.1759
    839  N4       -11.3660   13.1530   11.6920 N.pl3  42  DC42       -0.1070
    840  C5       -11.7030   11.8570   13.6720 C.ar   42  DC42        0.0566
    841  C6       -12.2360   11.8010   14.8970 C.ar   42  DC42        0.0849
    842  P        -17.3260    9.4780   16.8550 P.3    43  DC43        0.2141
    843  OP1      -18.5090    8.9840   17.6050 O.3    43  DC43       -0.4373
    844  OP2      -16.7270    8.6810   15.7590 O.2    43  DC43       -0.5172
    845  O5'      -17.6670   10.8970   16.2010 O.3    43  DC43       -0.3114
    846  C5'      -18.9510   11.0200   15.6190 C.3    43  DC43        0.1811
    847  C4'      -19.1730   12.3300   14.9100 C.3    43  DC43        0.1746
    848  O4'      -17.9660   13.1260   14.8300 O.3    43  DC43       -0.3327
    849  C3'      -19.5870   12.1520   13.4660 C.3    43  DC43        0.1558
    850  O3'      -20.9530   11.8150   13.3430 O.3    43  DC43       -0.3138
    851  C2'      -19.1980   13.4690   12.8140 C.3    43  DC43        0.0866
    852  C1'      -17.9380   13.8300   13.6030 C.3    43  DC43        0.2106
    853  N1       -16.7570   13.4520   12.8760 N.ar   43  DC43       -0.2556
    854  C2       -16.4060   14.1810   11.7340 C.ar   43  DC43        0.3531
    855  O2       -17.0660   15.1930   11.4440 O.2    43  DC43       -0.2443
    856  N3       -15.3610   13.7620   10.9800 N.ar   43  DC43       -0.1739
    857  C4       -14.6820   12.6690   11.3290 C.ar   43  DC43        0.1759
    858  N4       -13.6590   12.2950   10.5560 N.pl3  43  DC43       -0.1070
    859  C5       -15.0220   11.9170   12.4830 C.ar   43  DC43        0.0566
    860  C6       -16.0550   12.3330   13.2240 C.ar   43  DC43        0.0849
    861  P        -21.3500   10.5850   12.3670 P.3    44  DG44        0.2141
    862  OP1      -22.7670   10.1750   12.4700 O.3    44  DG44       -0.4373
    863  OP2      -20.2750    9.5760   12.2260 O.2    44  DG44       -0.5172
    864  O5'      -21.1870   11.5450   11.1020 O.3    44  DG44       -0.3114
    865  C5'      -21.9410   12.7470   11.0750 C.3    44  DG44        0.1811
    866  C4'      -21.7550   13.4810    9.7730 C.3    44  DG44        0.1746
    867  O4'      -20.4740   14.1600    9.7590 O.3    44  DG44       -0.3327
    868  C3'      -21.7380   12.6050    8.5310 C.3    44  DG44        0.1558
    869  O3'      -23.0430   12.2940    8.0760 O.3    44  DG44       -0.3138
    870  C2'      -20.9250   13.4310    7.5420 C.3    44  DG44        0.0865
    871  C1'      -19.9160   14.1120    8.4640 C.3    44  DG44        0.2094
    872  N9       -18.5900   13.3700    8.5460 N.ar   44  DG44       -0.2713
    873  C8       -18.1430   12.4380    9.4510 C.ar   44  DG44        0.1816
    874  N7       -17.0070   11.8930    9.1120 N.ar   44  DG44       -0.2173
    875  C5       -16.6800   12.5000    7.9140 C.ar   44  DG44        0.1748
    876  C6       -15.5590   12.3190    7.0630 C.ar   44  DG44        0.3023
    877  O6       -14.5990   11.5530    7.2130 O.2    44  DG44       -0.2633
    878  N1       -15.6200   13.1390    5.9400 N.ar   44  DG44       -0.1709
    879  C2       -16.6360   14.0250    5.6700 C.ar   44  DG44        0.2606
    880  N2       -16.5180   14.7320    4.5370 N.pl3  44  DG44       -0.0859
    881  N3       -17.6830   14.2040    6.4510 N.ar   44  DG44       -0.1918
    882  C4       -17.6460   13.4170    7.5470 C.ar   44  DG44        0.1722
    883  P        -23.2910   11.0940    7.0610 P.3    45  DG45        0.2141
    884  OP1      -24.7000   11.1140    6.5890 O.2    45  DG45       -0.5172
    885  OP2      -22.7140    9.8350    7.6110 O.3    45  DG45       -0.4373
    886  O5'      -22.3530   11.6310    5.8920 O.3    45  DG45       -0.3114
    887  C5'      -22.6720   12.8440    5.2180 C.3    45  DG45        0.1811
    888  C4'      -21.8130   12.9960    3.9910 C.3    45  DG45        0.1746
    889  O4'      -20.5460   13.6200    4.3440 O.3    45  DG45       -0.3327
    890  C3'      -21.4300   11.6930    3.3100 C.3    45  DG45        0.1558
    891  O3'      -22.4910   11.1720    2.4880 O.3    45  DG45       -0.3138
    892  C2'      -20.1670   12.1120    2.5550 C.3    45  DG45        0.0865
    893  C1'      -19.5010   13.0610    3.5600 C.3    45  DG45        0.2094
    894  N9       -18.6200   12.0140    4.4520 N.ar   45  DG45       -0.2713
    895  C8       -18.8320   11.3540    5.6380 C.ar   45  DG45        0.1816
    896  N7       -17.8490   10.5630    5.9710 N.ar   45  DG45       -0.2173
    897  C5       -16.9310   10.7080    4.9480 C.ar   45  DG45        0.1748
    898  C6       -15.6640   10.1010    4.7510 C.ar   45  DG45        0.3023
    899  O6       -15.0850    9.2840    5.4770 O.2    45  DG45       -0.2633
    900  N1       -15.0590   10.5290    3.5720 N.ar   45  DG45       -0.1709
    901  C2       -15.6070   11.4310    2.6920 C.ar   45  DG45        0.2606
    902  N2       -14.8720   11.7210    1.6100 N.pl3  45  DG45       -0.0859
    903  N3       -16.7830   12.0030    2.8610 N.ar   45  DG45       -0.1918
    904  C4       -17.3890   11.6010    3.9980 C.ar   45  DG45        0.1722
    905  P        -22.9640    9.7190    2.7280 P.3    46  DA46        0.2141
    906  OP1      -24.3080    9.4370    2.1720 O.2    46  DA46       -0.5172
    907  OP2      -22.6000    9.2210    4.0760 O.3    46  DA46       -0.4373
    908  O5'      -21.8650    9.2140    1.6910 O.3    46  DA46       -0.3114
    909  C5'      -21.9010    9.6330    0.3280 C.3    46  DA46        0.1811
    910  C4'      -20.7130    9.0740   -0.4290 C.3    46  DA46        0.1746
    911  O4'      -19.4900    9.5600    0.1730 O.3    46  DA46       -0.3327
    912  C3'      -20.5610    7.5600   -0.4080 C.3    46  DA46        0.1558
    913  O3'      -21.3020    6.9940   -1.4830 O.3    46  DA46       -0.3138
    914  C2'      -19.0690    7.3650   -0.6540 C.3    46  DA46        0.0865
    915  C1'      -18.4740    8.5870    0.0370 C.3    46  DA46        0.2094
    916  N9       -17.8920    8.4520    1.3090 N.ar   46  DA46       -0.2714
    917  C8       -18.4700    8.4880    2.5510 C.ar   46  DA46        0.1815
    918  N7       -17.6880    8.0550    3.5110 N.ar   46  DA46       -0.2193
    919  C5       -16.5170    7.7100    2.8550 C.ar   46  DA46        0.1518
    920  C6       -15.2950    7.1850    3.3120 C.ar   46  DA46        0.1919
    921  N6       -15.0440    6.9070    4.5940 N.pl3  46  DA46       -0.1054
    922  N1       -14.3300    6.9540    2.3970 N.ar   46  DA46       -0.2040
    923  C2       -14.5830    7.2350    1.1130 C.ar   46  DA46        0.2016
    924  N3       -15.6880    7.7310    0.5630 N.ar   46  DA46       -0.2048
    925  C4       -16.6280    7.9480    1.4980 C.ar   46  DA46        0.1691
    926  P        -22.0350    5.4190   -1.3480 P.3    47  DA47        0.2141
    927  OP1      -23.4690    5.7510   -1.5030 O.2    47  DA47       -0.5172
    928  OP2      -21.5850    4.6610   -0.1580 O.3    47  DA47       -0.4373
    929  O5'      -21.5350    4.6440   -2.6590 O.3    47  DA47       -0.3114
    930  C5'      -20.6580    3.5220   -2.5450 C.3    47  DA47        0.1811
    931  C4'      -19.2450    3.8220   -3.0160 C.3    47  DA47        0.1746
    932  O4'      -18.7020    4.9460   -2.2800 O.3    47  DA47       -0.3327
    933  C3'      -18.2400    2.7080   -2.7570 C.3    47  DA47        0.1558
    934  O3'      -18.3050    1.7080   -3.7620 O.3    47  DA47       -0.3138
    935  C2'      -16.9350    3.4890   -2.8190 C.3    47  DA47        0.0865
    936  C1'      -17.3350    4.7100   -2.0000 C.3    47  DA47        0.2094
    937  N9       -17.2830    4.7000   -0.3920 N.ar   47  DA47       -0.2714
    938  C8       -18.3190    4.7780    0.5010 C.ar   47  DA47        0.1815
    939  N7       -17.9340    4.8500    1.7530 N.ar   47  DA47       -0.2193
    940  C5       -16.5500    4.8160    1.6770 C.ar   47  DA47        0.1518
    941  C6       -15.5470    4.8590    2.6610 C.ar   47  DA47        0.1919
    942  N6       -15.7980    4.9490    3.9690 N.pl3  47  DA47       -0.1054
    943  N1       -14.2630    4.8050    2.2490 N.ar   47  DA47       -0.2040
    944  C2       -14.0120    4.7150    0.9380 C.ar   47  DA47        0.2016
    945  N3       -14.8680    4.6680   -0.0800 N.ar   47  DA47       -0.2048
    946  C4       -16.1350    4.7230    0.3620 C.ar   47  DA47        0.1691
    947  P        -18.5690    0.4470   -3.2900 P.3    48  DA48        0.2141
    948  OP1      -19.0020   -0.1950   -4.5500 O.2    48  DA48       -0.5172
    949  OP2      -19.2750    0.1680   -2.0210 O.3    48  DA48       -0.4373
    950  O5'      -17.0520    0.0530   -2.9860 O.3    48  DA48       -0.3114
    951  C5'      -16.0590    0.5990   -3.8380 C.3    48  DA48        0.1811
    952  C4'      -14.7700    0.8490   -3.1020 C.3    48  DA48        0.1746
    953  O4'      -14.9850    1.8000   -2.0250 O.3    48  DA48       -0.3327
    954  C3'      -14.1790   -0.3460   -2.3780 C.3    48  DA48        0.1558
    955  O3'      -13.5590   -1.2870   -3.2340 O.3    48  DA48       -0.3138
    956  C2'      -13.2330    0.3320   -1.4000 C.3    48  DA48        0.0865
    957  C1'      -14.1050    1.5070   -0.9590 C.3    48  DA48        0.2094
    958  N9       -14.8670    1.2130    0.2760 N.ar   48  DA48       -0.2714
    959  C8       -16.2170    1.0110    0.3930 C.ar   48  DA48        0.1815
    960  N7       -16.6280    0.8880    1.6340 N.ar   48  DA48       -0.2193
    961  C5       -15.4680    1.0170    2.3810 C.ar   48  DA48        0.1518
    962  C6       -15.2260    0.9820    3.7660 C.ar   48  DA48        0.1919
    963  N6       -16.1830    0.7990    4.6790 N.pl3  48  DA48       -0.1054
    964  N1       -13.9530    1.1440    4.1840 N.ar   48  DA48       -0.2040
    965  C2       -12.9950    1.3280    3.2680 C.ar   48  DA48        0.2016
    966  N3       -13.0980    1.3810    1.9420 N.ar   48  DA48       -0.2048
    967  C4       -14.3750    1.2170    1.5590 C.ar   48  DA48        0.1691
    968  P        -13.7940   -2.9070   -2.8860 P.3    49  DT49        0.2141
    969  OP1      -13.1550   -3.6350   -4.0120 O.2    49  DT49       -0.5172
    970  OP2      -14.9550   -3.5160   -2.1810 O.3    49  DT49       -0.4373
    971  O5'      -12.6750   -2.6020   -1.7980 O.3    49  DT49       -0.3114
    972  C5'      -11.4140   -2.0640   -2.1800 C.3    49  DT49        0.1811
    973  C4'      -10.4420   -2.1980   -1.0410 C.3    49  DT49        0.1746
    974  O4'      -10.7700   -1.2460    0.0110 O.3    49  DT49       -0.3327
    975  C3'      -10.5220   -3.5410   -0.3470 C.3    49  DT49        0.1558
    976  O3'       -9.8180   -4.5480   -1.0580 O.3    49  DT49       -0.3138
    977  C2'       -9.9330   -3.2180    1.0170 C.3    49  DT49        0.0866
    978  C1'      -10.5640   -1.8480    1.2830 C.3    49  DT49        0.2106
    979  N1       -11.9510   -2.0240    1.9270 N.ar   49  DT49       -0.2559
    980  C2       -11.9340   -2.1770    3.3010 C.ar   49  DT49        0.3545
    981  O2       -10.9110   -2.1400    3.9610 O.2    49  DT49       -0.2443
    982  N3       -13.1650   -2.3750    3.8780 N.ar   49  DT49       -0.1533
    983  C4       -14.3830   -2.4360    3.2350 C.ar   49  DT49        0.2804
    984  O4       -15.4060   -2.6190    3.8910 O.2    49  DT49       -0.2654
    985  C5       -14.3170   -2.2700    1.8100 C.ar   49  DT49        0.0534
    986  C6       -13.1340   -2.0750    1.2230 C.ar   49  DT49        0.0824
    987  C7       -15.5900   -2.3210    1.0190 C.3    49  DT49        0.0377
    988  P        -10.2820   -6.1540   -0.9820 P.3    50  DA50        0.2141
    989  OP1      -10.3340   -7.3590   -1.8450 O.2    50  DA50       -0.5172
    990  OP2      -11.3100   -5.9610    0.0390 O.3    50  DA50       -0.4373
    991  O5'       -8.8740   -6.1490   -0.2460 O.3    50  DA50       -0.3114
    992  C5'       -8.5530   -7.1490    0.7270 C.3    50  DA50        0.1811
    993  C4'       -8.0980   -6.4900    1.9970 C.3    50  DA50        0.1746
    994  O4'       -9.0830   -5.5020    2.3710 O.3    50  DA50       -0.3327
    995  C3'       -8.0180   -7.4270    3.1850 C.3    50  DA50        0.1558
    996  O3'       -6.7630   -8.0790    3.2510 O.3    50  DA50       -0.3138
    997  C2'       -8.3050   -6.5100    4.3690 C.3    50  DA50        0.0865
    998  C1'       -9.3410   -5.5730    3.7650 C.3    50  DA50        0.2094
    999  N9       -10.7540   -6.2210    4.0660 N.ar   50  DA50       -0.2714
   1000  C8       -11.6570   -6.3300    3.0410 C.ar   50  DA50        0.1815
   1001  N7       -12.8980   -6.4690    3.4430 N.ar   50  DA50       -0.2193
   1002  C5       -12.8030   -6.4520    4.8250 C.ar   50  DA50        0.1518
   1003  C6       -13.7690   -6.5560    5.8410 C.ar   50  DA50        0.1919
   1004  N6       -15.0750   -6.7050    5.6070 N.pl3  50  DA50       -0.1054
   1005  N1       -13.3420   -6.5020    7.1210 N.ar   50  DA50       -0.2040
   1006  C2       -12.0330   -6.3520    7.3540 C.ar   50  DA50        0.2016
   1007  N3       -11.0310   -6.2420    6.4850 N.ar   50  DA50       -0.2048
   1008  C4       -11.4890   -6.3000    5.2240 C.ar   50  DA50        0.1691
   1009  P         -6.6350   -9.8760    3.7450 P.3    51  DA51        0.2141
   1010  OP1       -5.1860  -10.1160    3.5350 O.3    51  DA51       -0.4373
   1011  OP2       -7.6070  -10.2380    2.6810 O.2    51  DA51       -0.5172
   1012  O5'       -7.0770  -10.5710    5.1030 O.3    51  DA51       -0.3114
   1013  C5'       -6.4870  -10.1480    6.3170 C.3    51  DA51        0.1811
   1014  C4'       -7.4940  -10.1380    7.4360 C.3    51  DA51        0.1746
   1015  O4'       -8.5860   -9.2160    7.1680 O.3    51  DA51       -0.3327
   1016  C3'       -8.2390  -11.4160    7.7380 C.3    51  DA51        0.1558
   1017  O3'       -7.4300  -12.3900    8.3380 O.3    51  DA51       -0.3138
   1018  C2'       -9.3500  -10.9080    8.6320 C.3    51  DA51        0.0865
   1019  C1'       -9.7310   -9.6210    7.9110 C.3    51  DA51        0.2094
   1020  N9       -10.8350   -9.9820    6.9690 N.ar   51  DA51       -0.2714
   1021  C8       -10.7170  -10.0990    5.6080 C.ar   51  DA51        0.1815
   1022  N7       -11.8670  -10.1310    4.9780 N.ar   51  DA51       -0.2193
   1023  C5       -12.8050  -10.0280    5.9930 C.ar   51  DA51        0.1518
   1024  C6       -14.2110  -10.0020    5.9830 C.ar   51  DA51        0.1919
   1025  N6       -14.9440  -10.0800    4.8700 N.pl3  51  DA51       -0.1054
   1026  N1       -14.8430   -9.8920    7.1710 N.ar   51  DA51       -0.2040
   1027  C2       -14.1080   -9.8120    8.2860 C.ar   51  DA51        0.2016
   1028  N3       -12.7840   -9.8250    8.4220 N.ar   51  DA51       -0.2048
   1029  C4       -12.1850   -9.9370    7.2250 C.ar   51  DA51        0.1691
   1030  P         -7.3670  -13.6510    7.6850 P.3    52  DG52        0.2141
   1031  OP1       -6.2700  -14.2590    8.4870 O.3    52  DG52       -0.4373
   1032  OP2       -7.7430  -14.2240    6.3560 O.2    52  DG52       -0.5172
   1033  O5'       -8.5950  -13.6350    8.6520 O.3    52  DG52       -0.3114
   1034  C5'       -8.2380  -13.4420    9.9350 C.3    52  DG52        0.1811
   1035  C4'       -9.5380  -13.3690   10.6580 C.3    52  DG52        0.1746
   1036  O4'      -10.3370  -12.3040   10.0740 O.3    52  DG52       -0.3327
   1037  C3'      -10.4180  -14.5990   10.5040 C.3    52  DG52        0.1558
   1038  O3'      -10.0550  -15.6470   11.3500 O.3    52  DG52       -0.3138
   1039  C2'      -11.7530  -13.9970   10.9170 C.3    52  DG52        0.0865
   1040  C1'      -11.7010  -12.6830   10.1620 C.3    52  DG52        0.2093
   1041  N9       -12.2560  -12.9910    8.7820 N.ar   52  DG52       -0.2728
   1042  C8       -11.5460  -13.1740    7.6200 C.ar   52  DG52        0.1814
   1043  N7       -12.3030  -13.4320    6.5880 N.ar   52  DG52       -0.2177
   1044  C5       -13.5890  -13.4180    7.0950 C.ar   52  DG52        0.1711
   1045  C6       -14.8360  -13.6340    6.4530 C.2    52  DG52        0.2985
   1046  O6       -15.0510  -13.8880    5.2620 O.2    52  DG52       -0.2655
   1047  N1       -15.9030  -13.5290    7.3410 N.am   52  DG52       -0.1054
   1048  C2       -15.7830  -13.2520    8.6820 C.1    52  DG52        0.1294
   1049  N2       -16.9270  -13.1900    9.3770 N.2    52  DG52       -0.0697
   1050  N3       -14.6320  -13.0500    9.2920 N.pl3  52  DG52       -0.1270
   1051  C4       -13.5820  -13.1470    8.4490 C.ar   52  DG52        0.1688
   1052  P         -9.8760  -17.0930   10.9290 P.3    53  DA53        0.2141
   1053  OP1       -8.9430  -17.8870   11.7650 O.3    53  DA53       -0.4373
   1054  OP2       -9.9870  -17.3910    9.4840 O.2    53  DA53       -0.5172
   1055  O5'      -11.3510  -17.1860   11.4980 O.3    53  DA53       -0.3114
   1056  C5'      -12.2430  -18.1240   10.9620 C.3    53  DA53        0.1811
   1057  C4'      -13.5700  -18.0220   11.6420 C.3    53  DA53        0.1746
   1058  O4'      -14.1870  -16.7830   11.2150 O.3    53  DA53       -0.3327
   1059  C3'      -14.5100  -19.1410   11.2700 C.3    53  DA53        0.1558
   1060  O3'      -14.4790  -20.3290   12.0390 O.3    53  DA53       -0.3138
   1061  C2'      -15.8010  -18.5150   10.7630 C.3    53  DA53        0.0865
   1062  C1'      -15.4610  -17.0280   10.6510 C.3    53  DA53        0.2094
   1063  N9       -15.4270  -16.7150    9.2390 N.ar   53  DA53       -0.2714
   1064  C8       -14.3350  -16.6270    8.4160 C.ar   53  DA53        0.1815
   1065  N7       -14.6380  -16.4310    7.1550 N.ar   53  DA53       -0.2193
   1066  C5       -16.0230  -16.3890    7.1490 C.ar   53  DA53        0.1518
   1067  C6       -16.9600  -16.2080    6.1170 C.ar   53  DA53        0.1919
   1068  N6       -16.6240  -16.0270    4.8370 N.pl3  53  DA53       -0.1054
   1069  N1       -18.2690  -16.2190    6.4490 N.ar   53  DA53       -0.2040
   1070  C2       -18.6040  -16.3990    7.7310 C.ar   53  DA53        0.2016
   1071  N3       -17.8160  -16.5790    8.7890 N.ar   53  DA53       -0.2048
   1072  C4       -16.5230  -16.5640    8.4260 C.ar   53  DA53        0.1691
   1073  P        -14.1690  -21.9760   11.2100 P.3    54  DG54        0.2141
   1074  OP1      -13.8520  -23.3380   11.7190 O.3    54  DG54       -0.4373
   1075  OP2      -13.3120  -21.3830   10.1470 O.2    54  DG54       -0.5172
   1076  O5'      -15.7060  -21.9330   10.7390 O.3    54  DG54       -0.3114
   1077  C5'      -16.6390  -22.9950   11.0480 C.3    54  DG54        0.1811
   1078  C4'      -18.0400  -22.7140   10.4700 C.3    54  DG54        0.1746
   1079  O4'      -18.2130  -21.2890   10.2290 O.3    54  DG54       -0.3327
   1080  C3'      -18.4460  -23.3650    9.1410 C.3    54  DG54        0.1558
   1081  O3'      -18.9460  -24.6920    9.2480 O.3    54  DG54       -0.3138
   1082  C2'      -19.5580  -22.4580    8.6490 C.3    54  DG54        0.0865
   1083  C1'      -19.0580  -21.0920    9.1050 C.3    54  DG54        0.2094
   1084  N9       -18.2070  -20.4760    7.9460 N.ar   54  DG54       -0.2713
   1085  C8       -16.9100  -20.0800    8.1670 C.ar   54  DG54        0.1816
   1086  N7       -16.3790  -19.4640    7.1460 N.ar   54  DG54       -0.2173
   1087  C5       -17.3820  -19.4490    6.1940 C.ar   54  DG54        0.1748
   1088  C6       -17.3980  -18.9200    4.8780 C.ar   54  DG54        0.3023
   1089  O6       -16.4890  -18.3350    4.2760 O.2    54  DG54       -0.2633
   1090  N1       -18.6240  -19.1220    4.2500 N.ar   54  DG54       -0.1709
   1091  C2       -19.7010  -19.7570    4.8200 C.ar   54  DG54        0.2606
   1092  N2       -20.8000  -19.8560    4.0590 N.pl3  54  DG54       -0.0859
   1093  N3       -19.7010  -20.2550    6.0410 N.ar   54  DG54       -0.1918
   1094  C4       -18.5210  -20.0710    6.6700 C.ar   54  DG54        0.1722
   1095  P        -18.4320  -25.6050    8.4160 P.3    55  DT55        0.2141
   1096  OP1      -18.9660  -26.8600    8.9950 O.3    55  DT55       -0.4373
   1097  OP2      -16.9760  -25.4000    8.2410 O.2    55  DT55       -0.5172
   1098  O5'      -19.0430  -25.4040    6.9560 O.3    55  DT55       -0.3114
   1099  C5'      -20.4330  -25.1300    6.8910 C.3    55  DT55        0.1811
   1100  C4'      -20.8400  -24.7070    5.5090 C.3    55  DT55        0.1746
   1101  O4'      -20.3740  -23.3630    5.2540 O.3    55  DT55       -0.3327
   1102  C3'      -20.2640  -25.5390    4.3760 C.3    55  DT55        0.1558
   1103  O3'      -21.0160  -26.7220    4.1760 O.3    55  DT55       -0.3138
   1104  C2'      -20.2970  -24.5730    3.2010 C.3    55  DT55        0.0866
   1105  C1'      -20.0340  -23.2330    3.8940 C.3    55  DT55        0.2106
   1106  N1       -18.6650  -22.6380    3.9280 N.ar   55  DT55       -0.2559
   1107  C2       -18.3700  -21.7090    2.9490 C.ar   55  DT55        0.3545
   1108  O2       -19.2210  -21.1810    2.2550 O.2    55  DT55       -0.2443
   1109  N3       -17.0340  -21.4170    2.8080 N.ar   55  DT55       -0.1533
   1110  C4       -15.9880  -21.9500    3.5320 C.ar   55  DT55        0.2804
   1111  O4       -14.8390  -21.5880    3.2910 O.2    55  DT55       -0.2654
   1112  C5       -16.3760  -22.9080    4.5290 C.ar   55  DT55        0.0534
   1113  C6       -17.6670  -23.2100    4.6870 C.ar   55  DT55        0.0824
   1114  C7       -15.3090  -23.5450    5.3690 C.3    55  DT55        0.0377
   1115  P        -20.5580  -28.1120    2.9890 P.3    56  DG56        0.2141
   1116  OP1      -21.4150  -29.3130    3.1000 O.3    56  DG56       -0.4373
   1117  OP2      -19.1140  -28.2680    2.7160 O.2    56  DG56       -0.5172
   1118  O5'      -21.1630  -27.1370    1.8780 O.3    56  DG56       -0.3114
   1119  C5'      -20.9260  -27.3390    0.4880 C.3    56  DG56        0.1811
   1120  C4'      -22.1500  -26.9320   -0.3080 C.3    56  DG56        0.1746
   1121  O4'      -23.2800  -27.7350    0.1210 O.3    56  DG56       -0.3327
   1122  C3'      -22.6160  -25.4940   -0.1450 C.3    56  DG56        0.1558
   1123  O3'      -21.9380  -24.6590   -1.0730 O.3    56  DG56       -0.3138
   1124  C2'      -24.1000  -25.5870   -0.4840 C.3    56  DG56        0.0865
   1125  C1'      -24.4570  -26.9480    0.1100 C.3    56  DG56        0.2094
   1126  N9       -25.0390  -26.8660    1.4750 N.ar   56  DG56       -0.2713
   1127  C8       -24.5840  -27.5410    2.5820 C.ar   56  DG56        0.1816
   1128  N7       -25.3350  -27.3710    3.6350 N.ar   56  DG56       -0.2173
   1129  C5       -26.3490  -26.5360    3.2020 C.ar   56  DG56        0.1748
   1130  C6       -27.4630  -25.9990    3.8980 C.ar   56  DG56        0.3023
   1131  O6       -27.7800  -26.1670    5.0820 O.2    56  DG56       -0.2633
   1132  N1       -28.2480  -25.1930    3.0780 N.ar   56  DG56       -0.1709
   1133  C2       -27.9930  -24.9370    1.7520 C.ar   56  DG56        0.2606
   1134  N2       -28.8650  -24.1360    1.1260 N.pl3  56  DG56       -0.0859
   1135  N3       -26.9620  -25.4280    1.0930 N.ar   56  DG56       -0.1918
   1136  C4       -26.1840  -26.2130    1.8690 C.ar   56  DG56        0.1722
   1137  P        -21.7630  -22.7620   -0.9250 P.3    57  DG57        0.2141
   1138  OP1      -20.7270  -22.6150   -1.9750 O.2    57  DG57       -0.5172
   1139  OP2      -21.4660  -22.3700    0.4720 O.3    57  DG57       -0.4373
   1140  O5'      -23.0610  -21.8940   -1.2670 O.3    57  DG57       -0.3114
   1141  C5'      -23.6940  -21.1540   -0.2250 C.3    57  DG57        0.1811
   1142  C4'      -25.1270  -20.8200   -0.5630 C.3    57  DG57        0.1746
   1143  O4'      -25.9520  -21.9640   -0.2100 O.3    57  DG57       -0.3327
   1144  C3'      -25.6920  -19.6200    0.1890 C.3    57  DG57        0.1558
   1145  O3'      -26.0330  -18.5520   -0.6900 O.3    57  DG57       -0.3138
   1146  C2'      -26.9210  -20.1230    0.9540 C.3    57  DG57        0.0865
   1147  C1'      -26.9410  -21.6350    0.7510 C.3    57  DG57        0.2094
   1148  N9       -26.4240  -22.4090    1.8610 N.ar   57  DG57       -0.2713
   1149  C8       -25.3080  -23.1380    2.1950 C.ar   57  DG57        0.1816
   1150  N7       -25.1900  -23.3400    3.4790 N.ar   57  DG57       -0.2173
   1151  C5       -26.2910  -22.7100    4.0280 C.ar   57  DG57        0.1748
   1152  C6       -26.7040  -22.5860    5.3800 C.ar   57  DG57        0.3023
   1153  O6       -26.1510  -23.0300    6.3940 O.2    57  DG57       -0.2633
   1154  N1       -27.8870  -21.8610    5.4980 N.ar   57  DG57       -0.1709
   1155  C2       -28.5850  -21.3230    4.4430 C.ar   57  DG57        0.2606
   1156  N2       -29.7060  -20.6570    4.7550 N.pl3  57  DG57       -0.0859
   1157  N3       -28.2130  -21.4300    3.1830 N.ar   57  DG57       -0.1918
   1158  C4       -27.0670  -22.1290    3.0440 C.ar   57  DG57        0.1722
   1159  P        -25.1720  -16.6620   -0.5030 P.3    58  DT58        0.2141
   1160  OP1      -26.2600  -15.7380   -0.9320 O.3    58  DT58       -0.4373
   1161  OP2      -23.8130  -16.5460   -1.1110 O.2    58  DT58       -0.5172
   1162  O5'      -25.0690  -16.5060    1.0760 O.3    58  DT58       -0.3114
   1163  C5'      -26.2310  -16.7570    1.8450 C.3    58  DT58        0.1811
   1164  C4'      -26.0790  -16.2280    3.2320 C.3    58  DT58        0.1746
   1165  O4'      -25.0920  -17.0020    3.9350 O.3    58  DT58       -0.3327
   1166  C3'      -25.6750  -14.7770    3.3550 C.3    58  DT58        0.1558
   1167  O3'      -26.4360  -14.3300    4.4650 O.3    58  DT58       -0.3138
   1168  C2'      -24.1760  -14.8690    3.6090 C.3    58  DT58        0.0866
   1169  C1'      -24.0850  -16.1520    4.4220 C.3    58  DT58        0.2106
   1170  N1       -22.8490  -16.7200    4.0990 N.ar   58  DT58       -0.2559
   1171  C2       -21.8520  -16.8380    5.0490 C.ar   58  DT58        0.3545
   1172  O2       -22.0790  -17.0320    6.2300 O.2    58  DT58       -0.2443
   1173  N3       -20.5720  -16.7190    4.5650 N.ar   58  DT58       -0.1533
   1174  C4       -20.1970  -16.4990    3.2560 C.ar   58  DT58        0.2804
   1175  O4       -19.0040  -16.4160    2.9740 O.2    58  DT58       -0.2654
   1176  C5       -21.2890  -16.3870    2.3300 C.ar   58  DT58        0.0534
   1177  C6       -22.5440  -16.4990    2.7740 C.ar   58  DT58        0.0824
   1178  C7       -20.9840  -16.1460    0.8810 C.3    58  DT58        0.0377
   1179  P        -26.3420  -12.6880    5.0550 P.3    59  DG59        0.2141
   1180  OP1      -27.6820  -12.2110    5.4590 O.3    59  DG59       -0.4373
   1181  OP2      -25.4840  -11.8800    4.1550 O.2    59  DG59       -0.5172
   1182  O5'      -25.4480  -12.9060    6.3720 O.3    59  DG59       -0.3114
   1183  C5'      -25.9360  -13.4900    7.5740 C.3    59  DG59        0.1811
   1184  C4'      -24.8050  -13.7540    8.5410 C.3    59  DG59        0.1746
   1185  O4'      -23.7840  -14.5580    7.8890 O.3    59  DG59       -0.3327
   1186  C3'      -24.0230  -12.5410    9.0250 C.3    59  DG59        0.1558
   1187  O3'      -24.6550  -11.8110   10.0610 O.3    59  DG59       -0.3138
   1188  C2'      -22.6920  -13.1510    9.4430 C.3    59  DG59        0.0865
   1189  C1'      -22.4990  -14.1920    8.3470 C.3    59  DG59        0.2093
   1190  N9       -21.7240  -13.6470    7.2430 N.ar   59  DG59       -0.2728
   1191  C8       -22.2030  -13.4800    5.9660 C.ar   59  DG59        0.1814
   1192  N7       -21.2940  -13.0670    5.1250 N.ar   59  DG59       -0.2177
   1193  C5       -20.1470  -12.9550    5.8880 C.ar   59  DG59        0.1711
   1194  C6       -18.8360  -12.5480    5.5290 C.2    59  DG59        0.2985
   1195  O6       -18.4200  -12.1950    4.4180 O.2    59  DG59       -0.2655
   1196  N1       -17.9660  -12.5760    6.6160 N.am   59  DG59       -0.1054
   1197  C2       -18.3160  -12.9500    7.8910 C.1    59  DG59        0.1294
   1198  N2       -17.3390  -12.9150    8.8070 N.2    59  DG59       -0.0697
   1199  N3       -19.5300  -13.3300    8.2400 N.pl3  59  DG59       -0.1270
   1200  C4       -20.3920  -13.3090    7.2010 C.ar   59  DG59        0.1688
   1201  P        -24.2870  -10.3840   10.1940 P.3    60  DT60        0.2141
   1202  OP1      -25.3180   -9.8690   11.1260 O.3    60  DT60       -0.4373
   1203  OP2      -24.3150   -9.9720    8.7760 O.2    60  DT60       -0.5172
   1204  O5'      -22.8350  -10.0480   10.7600 O.3    60  DT60       -0.3114
   1205  C5'      -22.5270  -10.2480   12.1490 C.3    60  DT60        0.1811
   1206  C4'      -21.0620  -10.0040   12.4170 C.3    60  DT60        0.1746
   1207  O4'      -20.2640  -10.9020   11.6040 O.3    60  DT60       -0.3327
   1208  C3'      -20.5200   -8.6140   12.1290 C.3    60  DT60        0.1558
   1209  O3'      -20.7660   -7.7500   13.2330 O.3    60  DT60       -0.3138
   1210  C2'      -19.0280   -8.8720   11.9090 C.3    60  DT60        0.0866
   1211  C1'      -19.0330  -10.2700   11.2730 C.3    60  DT60        0.2106
   1212  N1       -18.9580  -10.1900    9.7560 N.ar   60  DT60       -0.2559
   1213  C2       -17.6660  -10.0520    9.2850 C.ar   60  DT60        0.3545
   1214  O2       -16.6920  -10.0220   10.0170 O.2    60  DT60       -0.2443
   1215  N3       -17.5520   -9.9500    7.9200 N.ar   60  DT60       -0.1533
   1216  C4       -18.5780   -9.9710    6.9980 C.ar   60  DT60        0.2804
   1217  O4       -18.3180   -9.8690    5.8020 O.2    60  DT60       -0.2654
   1218  C5       -19.8900  -10.1160    7.5650 C.ar   60  DT60        0.0534
   1219  C6       -20.0290  -10.2170    8.8890 C.ar   60  DT60        0.0824
   1220  C7       -21.0730  -10.1490    6.6440 C.3    60  DT60        0.0377
   1221  P        -20.7570   -6.1470   13.0280 P.3    61  DT61        0.2141
   1222  OP1      -21.6390   -5.9000   14.1930 O.3    61  DT61       -0.4373
   1223  OP2      -21.1070   -5.6260   11.6870 O.2    61  DT61       -0.5172
   1224  O5'      -19.2750   -5.5950   13.2820 O.3    61  DT61       -0.3114
   1225  C5'      -18.5310   -6.1430   14.3610 C.3    61  DT61        0.1811
   1226  C4'      -17.0730   -6.3560   14.0330 C.3    61  DT61        0.1746
   1227  O4'      -16.9190   -7.3450   12.9830 O.3    61  DT61       -0.3327
   1228  C3'      -16.2870   -5.1580   13.5200 C.3    61  DT61        0.1558
   1229  O3'      -15.9600   -4.2250   14.5370 O.3    61  DT61       -0.3138
   1230  C2'      -15.0790   -5.8390   12.8810 C.3    61  DT61        0.0866
   1231  C1'      -15.7230   -7.0850   12.2750 C.3    61  DT61        0.2106
   1232  N1       -16.0510   -6.8960   10.8200 N.ar   61  DT61       -0.2559
   1233  C2       -15.0480   -6.8590    9.8700 C.ar   61  DT61        0.3545
   1234  O2       -13.8640   -6.8350   10.1540 O.2    61  DT61       -0.2443
   1235  N3       -15.4830   -6.8490    8.5660 N.ar   61  DT61       -0.1533
   1236  C4       -16.7910   -6.8720    8.1280 C.ar   61  DT61        0.2804
   1237  O4       -17.0250   -6.8600    6.9220 O.2    61  DT61       -0.2654
   1238  C5       -17.7730   -6.9090    9.1750 C.ar   61  DT61        0.0534
   1239  C6       -17.3780   -6.9190   10.4500 C.ar   61  DT61        0.0824
   1240  C7       -19.2250   -6.9350    8.8000 C.3    61  DT61        0.0377
   1241  P        -15.8240   -2.5700   14.2380 P.3    62  DG62        0.2141
   1242  OP1      -15.6480   -1.7330   15.4470 O.3    62  DG62       -0.4373
   1243  OP2      -16.4410   -2.0290   13.0050 O.2    62  DG62       -0.5172
   1244  O5'      -14.3730   -3.0790   13.7830 O.3    62  DG62       -0.3114
   1245  C5'      -13.2890   -3.1670   14.7020 C.3    62  DG62        0.1811
   1246  C4'      -11.9460   -3.3150   14.0160 C.3    62  DG62        0.1746
   1247  O4'      -12.0370   -4.2670   12.9240 O.3    62  DG62       -0.3327
   1248  C3'      -11.3340   -2.0600   13.4020 C.3    62  DG62        0.1558
   1249  O3'      -10.5880   -1.3290   14.3640 O.3    62  DG62       -0.3138
   1250  C2'      -10.4760   -2.6040   12.2650 C.3    62  DG62        0.0865
   1251  C1'      -11.2420   -3.8550   11.8340 C.3    62  DG62        0.2094
   1252  N9       -12.3030   -3.5020   10.6800 N.ar   62  DG62       -0.2713
   1253  C8       -13.6750   -3.4530   10.7170 C.ar   62  DG62        0.1816
   1254  N7       -14.2170   -3.2910    9.5400 N.ar   62  DG62       -0.2173
   1255  C5       -13.1420   -3.2320    8.6730 C.ar   62  DG62        0.1748
   1256  C6       -13.0990   -3.0640    7.2650 C.ar   62  DG62        0.3023
   1257  O6       -14.0470   -2.9310    6.4810 O.2    62  DG62       -0.2633
   1258  N1       -11.7950   -3.0580    6.7800 N.ar   62  DG62       -0.1709
   1259  C2       -10.6690   -3.1960    7.5560 C.ar   62  DG62        0.2606
   1260  N2        -9.4970   -3.1670    6.9080 N.pl3  62  DG62       -0.0859
   1261  N3       -10.6920   -3.3520    8.8650 N.ar   62  DG62       -0.1918
   1262  C4       -11.9490   -3.3600    9.3580 C.ar   62  DG62        0.1722
   1263  P        -10.0490    0.1650   14.2590 P.3    63  DG63        0.2141
   1264  OP1       -9.0880    0.4650   15.3520 O.3    63  DG63       -0.4373
   1265  OP2      -11.2390    1.0340   14.0680 O.2    63  DG63       -0.5172
   1266  O5'       -9.2210    0.1170   12.9050 O.3    63  DG63       -0.3114
   1267  C5'       -7.9810   -0.5670   12.8590 C.3    63  DG63        0.1811
   1268  C4'       -7.4770   -0.6470   11.4470 C.3    63  DG63        0.1746
   1269  O4'       -8.3440   -1.4700   10.6200 O.3    63  DG63       -0.3327
   1270  C3'       -7.4150    0.6480   10.6750 C.3    63  DG63        0.1558
   1271  O3'       -6.3320    1.4590   11.1120 O.3    63  DG63       -0.3138
   1272  C2'       -7.2320    0.1060    9.2670 C.3    63  DG63        0.0865
   1273  C1'       -8.2630   -1.0220    9.2700 C.3    63  DG63        0.2093
   1274  N9        -9.6060   -0.5820    8.8340 N.ar   63  DG63       -0.2728
   1275  C8       -10.7190   -0.3590    9.6090 C.ar   63  DG63        0.1814
   1276  N7       -11.7440    0.0720    8.9260 N.ar   63  DG63       -0.2177
   1277  C5       -11.2860    0.1380    7.6230 C.ar   63  DG63        0.1711
   1278  C6       -11.9440    0.5380    6.4320 C.2    63  DG63        0.2985
   1279  O6       -13.1110    0.9270    6.2950 O.2    63  DG63       -0.2655
   1280  N1       -11.1080    0.4550    5.3220 N.am   63  DG63       -0.1042
   1281  C2        -9.7990    0.0370    5.3560 C.1    63  DG63        0.1460
   1282  N2        -9.1530    0.0230    4.1820 N.2    63  DG63       -0.0024
   1283  N3        -9.1740   -0.3370    6.4540 N.pl3  63  DG63       -0.1259
   1284  C4        -9.9660   -0.2630    7.5450 C.ar   63  DG63        0.1688
   1285  P         -6.4290    3.1210   10.9290 P.3    64  DC64        0.2141
   1286  OP1       -5.2470    3.7240   11.6030 O.3    64  DC64       -0.4373
   1287  OP2       -7.7960    3.5580   11.3060 O.2    64  DC64       -0.5172
   1288  O5'       -6.2420    3.3220    9.3650 O.3    64  DC64       -0.3114
   1289  C5'       -5.0050    3.0110    8.7450 C.3    64  DC64        0.1811
   1290  C4'       -5.1540    3.0310    7.2490 C.3    64  DC64        0.1744
   1291  O4'       -6.1660    2.0590    6.8500 O.3    64  DC64       -0.3348
   1292  C3'       -5.5980    4.3590    6.6360 C.3    64  DC64        0.1555
   1293  O3'       -5.0030    4.4100    5.3480 O.3    64  DC64       -0.3139
   1294  C2'       -7.1020    4.1460    6.5020 C.3    64  DC64        0.0836
   1295  C1'       -7.1130    2.6990    6.0260 C.3    64  DC64        0.1999
   1296  N1        -8.2550    2.3190    6.0180 N.pl3  64  DC64       -0.2132
   1297  C2        -9.1110    2.0260    4.9510 C.2    64  DC64        0.4331
   1298  O2        -8.6220    1.5980    3.8920 O.2    64  DC64       -0.2850
   1299  N3       -10.4430    2.2180    5.1020 N.2    64  DC64        0.0237
   1300  C4       -10.9240    2.6800    6.2570 C.2    64  DC64        0.4172
   1301  N4       -12.2440    2.8540    6.3590 N.pl3  64  DC64        0.2162
   1302  C5       -10.0730    2.9830    7.3500 C.2    64  DC64        0.0937
   1303  C6        -8.7580    2.7920    7.1970 C.3    64  DC64        0.1340
   1304  P         -4.7040    5.6340    4.7300 P.3    65  DT65        0.2141
   1305  OP1       -3.3940    6.2000    4.3680 O.2    65  DT65       -0.5172
   1306  OP2       -5.5200    6.3050    5.7750 O.3    65  DT65       -0.4373
   1307  O5'       -5.6050    5.5250    3.4230 O.3    65  DT65       -0.3114
   1308  C5'       -5.1220    4.8870    2.2470 C.3    65  DT65        0.1811
   1309  C4'       -6.1120    5.0650    1.1190 C.3    65  DT65        0.1746
   1310  O4'       -7.2930    4.2590    1.3660 O.3    65  DT65       -0.3327
   1311  C3'       -6.6600    6.4750    0.9870 C.3    65  DT65        0.1558
   1312  O3'       -5.7690    7.3320    0.2970 O.3    65  DT65       -0.3138
   1313  C2'       -7.9840    6.2560    0.2710 C.3    65  DT65        0.0866
   1314  C1'       -8.4550    4.9590    0.9230 C.3    65  DT65        0.2106
   1315  N1        -9.3400    5.2680    2.0560 N.ar   65  DT65       -0.2559
   1316  C2       -10.6700    5.4900    1.7510 C.ar   65  DT65        0.3545
   1317  O2       -11.1100    5.4340    0.6170 O.2    65  DT65       -0.2443
   1318  N3       -11.4710    5.7830    2.8280 N.ar   65  DT65       -0.1533
   1319  C4       -11.0850    5.8740    4.1490 C.ar   65  DT65        0.2804
   1320  O4       -11.9220    6.1450    5.0070 O.2    65  DT65       -0.2654
   1321  C5        -9.6890    5.6310    4.3840 C.ar   65  DT65        0.0534
   1322  C6        -8.8880    5.3450    3.3550 C.ar   65  DT65        0.0824
   1323  C7        -9.1700    5.7070    5.7890 C.3    65  DT65        0.0377
   1324  P         -5.6950    8.9510    0.6950 P.3    66  DC66        0.2141
   1325  OP1       -4.3640    9.3520    0.1820 O.2    66  DC66       -0.5172
   1326  OP2       -5.9720    9.0290    2.1520 O.3    66  DC66       -0.4373
   1327  O5'       -6.8160    9.7690   -0.0790 O.3    66  DC66       -0.3114
   1328  C5'       -7.1130    9.4660   -1.4370 C.3    66  DC66        0.1811
   1329  C4'       -8.5660    9.7340   -1.7300 C.3    66  DC66        0.1746
   1330  O4'       -9.4140    8.7080   -1.1470 O.3    66  DC66       -0.3327
   1331  C3'       -9.1180   11.0040   -1.1200 C.3    66  DC66        0.1558
   1332  O3'       -8.7060   12.1600   -1.8290 O.3    66  DC66       -0.3138
   1333  C2'      -10.6170   10.7560   -1.2010 C.3    66  DC66        0.0866
   1334  C1'      -10.6890    9.2660   -0.8550 C.3    66  DC66        0.2106
   1335  N1       -10.9680    9.0730    0.6130 N.ar   66  DC66       -0.2556
   1336  C2       -12.2820    9.2440    1.0640 C.ar   66  DC66        0.3531
   1337  O2       -13.1540    9.5890    0.2480 O.2    66  DC66       -0.2443
   1338  N3       -12.5630    9.0290    2.3710 N.ar   66  DC66       -0.1739
   1339  C4       -11.5950    8.6610    3.2100 C.ar   66  DC66        0.1759
   1340  N4       -11.9200    8.4610    4.4900 N.pl3  66  DC66       -0.1070
   1341  C5       -10.2570    8.4830    2.7730 C.ar   66  DC66        0.0566
   1342  C6        -9.9840    8.6950    1.4810 C.ar   66  DC66        0.0849
   1343  P         -8.6020   13.7870   -0.9960 P.3    67  DC67        0.2141
   1344  OP1       -7.7150   14.7680   -1.6660 O.2    67  DC67       -0.5172
   1345  OP2       -8.0980   13.0590    0.1950 O.3    67  DC67       -0.4373
   1346  O5'      -10.0160   14.4420   -0.6810 O.3    67  DC67       -0.3114
   1347  C5'      -10.7070   15.1990   -1.6720 C.3    67  DC67        0.1811
   1348  C4'      -11.9990   15.7350   -1.1110 C.3    67  DC67        0.1746
   1349  O4'      -12.8530   14.6370   -0.7010 O.3    67  DC67       -0.3327
   1350  C3'      -11.8710   16.5930    0.1380 C.3    67  DC67        0.1558
   1351  O3'      -11.4960   17.9270   -0.1400 O.3    67  DC67       -0.3138
   1352  C2'      -13.2550   16.4620    0.7650 C.3    67  DC67        0.0866
   1353  C1'      -13.5830   15.0030    0.4530 C.3    67  DC67        0.2106
   1354  N1       -13.2220   14.1270    1.5790 N.ar   67  DC67       -0.2556
   1355  C2       -14.0670   14.0280    2.6890 C.ar   67  DC67        0.3531
   1356  O2       -15.1170   14.6940    2.7030 O.2    67  DC67       -0.2443
   1357  N3       -13.7180   13.2140    3.7140 N.ar   67  DC67       -0.1739
   1358  C4       -12.5810   12.5190    3.6560 C.ar   67  DC67        0.1759
   1359  N4       -12.2790   11.7300    4.6900 N.pl3  67  DC67       -0.1070
   1360  C5       -11.7110   12.6050    2.5400 C.ar   67  DC67        0.0566
   1361  C6       -12.0590   13.4100    1.5300 C.ar   67  DC67        0.0849
   1362  P        -10.3760   18.6610    0.8520 P.3    68  DC68        0.2141
   1363  OP1      -10.1740   19.9490    0.1490 O.2    68  DC68       -0.5172
   1364  OP2       -9.2480   18.0360    1.5790 O.3    68  DC68       -0.4373
   1365  O5'      -11.6400   18.8160    1.8110 O.3    68  DC68       -0.3114
   1366  C5'      -12.7710   19.5320    1.3490 C.3    68  DC68        0.1811
   1367  C4'      -13.8290   19.6740    2.4190 C.3    68  DC68        0.1746
   1368  O4'      -14.4340   18.3750    2.6920 O.3    68  DC68       -0.3327
   1369  C3'      -13.3370   20.1180    3.7900 C.3    68  DC68        0.1558
   1370  O3'      -13.1350   21.5240    3.9020 O.3    68  DC68       -0.3138
   1371  C2'      -14.4630   19.6510    4.7030 C.3    68  DC68        0.0866
   1372  C1'      -14.8670   18.3350    4.0450 C.3    68  DC68        0.2106
   1373  N1       -14.3060   17.2130    4.6860 N.ar   68  DC68       -0.2556
   1374  C2       -14.9530   16.7100    5.8200 C.ar   68  DC68        0.3531
   1375  O2       -16.0140   17.2420    6.1890 O.2    68  DC68       -0.2443
   1376  N3       -14.4060   15.6620    6.4820 N.ar   68  DC68       -0.1739
   1377  C4       -13.2650   15.1230    6.0500 C.ar   68  DC68        0.1759
   1378  N4       -12.7630   14.0930    6.7340 N.pl3  68  DC68       -0.1070
   1379  C5       -12.5940   15.6180    4.9030 C.ar   68  DC68        0.0566
   1380  C6       -13.1380   16.6530    4.2520 C.ar   68  DC68        0.0849
   1381  P        -12.2980   22.1170    5.1160 P.3    69  DG69        0.2141
   1382  OP1      -12.1290   23.4680    4.5250 O.2    69  DG69       -0.5172
   1383  OP2      -11.1530   21.1700    5.1620 O.3    69  DG69       -0.4373
   1384  O5'      -12.8230   22.2410    6.6080 O.3    69  DG69       -0.3114
   1385  C5'      -14.1680   22.6090    6.8880 C.3    69  DG69        0.1811
   1386  C4'      -14.6090   21.9780    8.1840 C.3    69  DG69        0.1746
   1387  O4'      -14.6460   20.5320    8.0470 O.3    69  DG69       -0.3327
   1388  C3'      -13.6610   22.1480    9.3570 C.3    69  DG69        0.1558
   1389  O3'      -13.7580   23.4670    9.8950 O.3    69  DG69       -0.3138
   1390  C2'      -14.2090   21.0890   10.3110 C.3    69  DG69        0.0865
   1391  C1'      -14.5260   19.9450    9.3390 C.3    69  DG69        0.2094
   1392  N9       -13.5740   18.9290    9.2510 N.ar   69  DG69       -0.2713
   1393  C8       -12.6470   18.8060    8.2450 C.ar   69  DG69        0.1816
   1394  N7       -11.8940   17.7470    8.3640 N.ar   69  DG69       -0.2173
   1395  C5       -12.3500   17.1300    9.5140 C.ar   69  DG69        0.1748
   1396  C6       -11.9210   15.9390   10.1550 C.ar   69  DG69        0.3023
   1397  O6       -11.0160   15.1680    9.8120 O.2    69  DG69       -0.2633
   1398  N1       -12.6580   15.6730   11.3060 N.ar   69  DG69       -0.1709
   1399  C2       -13.6810   16.4570   11.7810 C.ar   69  DG69        0.2606
   1400  N2       -14.2750   16.0370   12.9060 N.pl3  69  DG69       -0.0859
   1401  N3       -14.0900   17.5660   11.1970 N.ar   69  DG69       -0.1918
   1402  C4       -13.3890   17.8450   10.0780 C.ar   69  DG69        0.1722
   1403  P        -12.3640   24.2640   10.5880 P.3    70  DT70        0.2141
   1404  OP1      -12.4730   25.7110   10.8820 O.3    70  DT70       -0.4373
   1405  OP2      -11.1560   23.7090    9.9360 O.2    70  DT70       -0.5172
   1406  O5'      -12.4740   23.4400   11.9530 O.3    70  DT70       -0.3114
   1407  C5'      -13.5380   23.6970   12.8570 C.3    70  DT70        0.1811
   1408  C4'      -13.3990   22.8770   14.1160 C.3    70  DT70        0.1746
   1409  O4'      -13.7260   21.4900   13.8360 O.3    70  DT70       -0.3327
   1410  C3'      -11.9970   22.7850   14.7040 C.3    70  DT70        0.1558
   1411  O3'      -11.5620   23.9440   15.3930 O.3    70  DT70       -0.3138
   1412  C2'      -12.1110   21.5350   15.5670 C.3    70  DT70        0.0866
   1413  C1'      -12.9090   20.6440   14.6200 C.3    70  DT70        0.2106
   1414  N1       -12.0820   19.8200   13.6870 N.ar   70  DT70       -0.2559
   1415  C2       -11.5080   18.6650   14.1820 C.ar   70  DT70        0.3545
   1416  O2       -11.6330   18.3040   15.3390 O.2    70  DT70       -0.2443
   1417  N3       -10.7780   17.9420   13.2690 N.ar   70  DT70       -0.1533
   1418  C4       -10.5690   18.2530   11.9420 C.ar   70  DT70        0.2804
   1419  O4        -9.8880   17.5030   11.2460 O.2    70  DT70       -0.2654
   1420  C5       -11.1960   19.4680   11.5040 C.ar   70  DT70        0.0534
   1421  C6       -11.9120   20.1890   12.3710 C.ar   70  DT70        0.0824
   1422  C7       -11.0270   19.8930   10.0750 C.3    70  DT70        0.0377
   1423  P        -10.0690   24.4940   15.0860 P.3    71  DA71        0.2141
   1424  OP1      -10.0030   25.8280   15.7110 O.3    71  DA71       -0.4373
   1425  OP2       -9.4500   24.2780   13.7780 O.2    71  DA71       -0.5172
   1426  O5'       -9.5310   23.3990   16.1090 O.3    71  DA71       -0.3114
   1427  C5'      -10.0710   23.3110   17.4170 C.3    71  DA71        0.1811
   1428  C4'       -9.6100   22.0540   18.1000 C.3    71  DA71        0.1746
   1429  O4'       -9.9930   20.9080   17.2980 O.3    71  DA71       -0.3327
   1430  C3'       -8.1210   21.8390   18.2640 C.3    71  DA71        0.1558
   1431  O3'       -7.5520   22.6130   19.3030 O.3    71  DA71       -0.3138
   1432  C2'       -8.0940   20.3520   18.5660 C.3    71  DA71        0.0865
   1433  C1'       -9.0730   19.8560   17.5160 C.3    71  DA71        0.2094
   1434  N9        -8.3920   19.5730   16.2860 N.ar   71  DA71       -0.2714
   1435  C8        -8.5040   20.3500   15.1630 C.ar   71  DA71        0.1815
   1436  N7        -7.8820   19.8600   14.1160 N.ar   71  DA71       -0.2193
   1437  C5        -7.3230   18.6810   14.5840 C.ar   71  DA71        0.1518
   1438  C6        -6.5380   17.6940   13.9620 C.ar   71  DA71        0.1919
   1439  N6        -6.1680   17.7430   12.6810 N.pl3  71  DA71       -0.1054
   1440  N1        -6.1430   16.6440   14.7120 N.ar   71  DA71       -0.2040
   1441  C2        -6.5160   16.5950   15.9960 C.ar   71  DA71        0.2016
   1442  N3        -7.2510   17.4590   16.6920 N.ar   71  DA71       -0.2048
   1443  C4        -7.6270   18.4920   15.9190 C.ar   71  DA71        0.1691
   1444  P         -6.4810   22.9310   20.5530 P.3    72  DT72        0.2141
   1445  OP1       -7.7310   22.3280   21.0890 O.2    72  DT72       -0.5172
   1446  OP2       -5.6450   23.7960   21.4310 O.3    72  DT72       -0.4373
   1447  O5'       -5.5420   21.7790   19.9740 O.3    72  DT72       -0.3114
   1448  C5'       -5.1640   20.6880   20.7980 C.3    72  DT72        0.1811
   1449  C4'       -4.6590   19.5340   19.9650 C.3    72  DT72        0.1753
   1450  O4'       -3.2800   19.7810   19.5700 O.3    72  DT72       -0.3510
   1451  C3'       -4.5960   18.2420   20.7620 C.3    72  DT72        0.1839
   1452  O3'       -5.8520   17.5820   20.7680 O.3    72  DT72       -0.2204
   1453  C2'       -3.4760   17.4700   20.0790 C.3    72  DT72        0.0676
   1454  C1'       -2.5050   18.6010   19.7370 C.3    72  DT72        0.1450
   1455  N1        -3.7240   19.0160   16.6710 N.2    72  DT72       -0.1608
   1456  C2        -2.8220   18.4450   15.7930 C.1    72  DT72        0.2395
   1457  O2        -2.1780   17.4460   16.0590 O.2    72  DT72       -0.2041
   1458  N3        -2.7000   19.0890   14.5850 N.am   72  DT72       -0.0881
   1459  C4        -3.3730   20.2210   14.1760 C.2    72  DT72        0.2768
   1460  O4        -3.1570   20.6830   13.0590 O.2    72  DT72       -0.2676
   1461  C5        -4.2900   20.7550   15.1440 C.2    72  DT72        0.0541
   1462  C6        -4.4290   20.1490   16.3260 C.2    72  DT72        0.1126
   1463  C7        -5.0700   21.9870   14.7940 C.3    72  DT72        0.0376
@<TRIPOS>BOND
     1   399   398    2
     2   386   398    1
     3   386   385    1
     4   621   620    2
     5   160   159    2
     6   398   400    1
     7   398   401    1
     8   163   162    1
     9   163   164    1
    10   146   159    1
    11   146   145    1
    12   383   385    1
    13   383   382    1
    14   383   384    1
    15   402   401    1
    16   402   403    1
    17   607   620    1
    18   607   606    1
    19   385   387    1
    20   387   388    1
    21   162   159    1
    22   382   381    1
    23   143   142    1
    24   143   145    1
    25   143   144    1
    26   603   604    1
    27   603   602    1
    28   159   161    1
    29   604   606    1
    30   604   605    1
    31   179   178    2
    32   620   622    1
    33   620   623    1
    34   164   165    1
    35   164   166    1
    36   142   141    1
    37   384   388    1
    38   145   147    1
    39   624   623    1
    40   624   625    1
    41   167   178    1
    42   167   166    1
    43   147   148    1
    44   388   389    1
    45   403   404    1
    46   403   405    1
    47   606   608    1
    48   144   148    1
    49   178   180    1
    50   178   181    1
    51   608   609    1
    52   605   609    1
    53   642   641    2
    54   165   169    1
    55   148   149    1
    56   166   168    1
    57   602   599    1
    58   381   378    1
    59   600   599    2
    60   404   408    1
    61   419   418    2
    62   141   138    1
    63   406   405    1
    64   406   418    1
    65   609   610    1
    66   625   627    1
    67   625   626    1
    68   391   390    2
    69   379   378    2
    70   139   138    2
    71   585   599    1
    72   585   584    1
    73   182   181    1
    74   182   183    1
    75   628   641    1
    76   628   627    1
    77   405   407    1
    78   389   390   ar
    79   389   396   ar
    80   599   601    1
    81   418   420    1
    82   418   421    1
    83   378   365    1
    84   378   380    1
    85   366   367    1
    86   366   364    1
    87   376   375   ar
    88   376   377   ar
    89   168   169    1
    90   375   374   ar
    91   586   584    1
    92   586   587    1
    93   365   364    1
    94   169   170    1
    95   138   127    1
    96   138   140    1
    97   390   392   ar
    98   641   643    1
    99   641   644    1
   100   127   126    1
   101   627   629    1
   102   626   630    1
   103   582   584    1
   104   582   583    1
   105   582   581    1
   106   408   407    1
   107   408   409    1
   108   149   158   ar
   109   149   150   ar
   110   587   583    1
   111   587   588    1
   112   128   126    1
   113   128   129    1
   114   396   395   ar
   115   157   158   ar
   116   157   156   ar
   117   596   595    1
   118   367   368    1
   119   367   363    1
   120   610   611   ar
   121   610   619   ar
   122   183   184    1
   123   183   185    1
   124   364   362    1
   125   416   409   ar
   126   416   415   ar
   127   200   199    2
   128   374   372   ar
   129   177   170   ar
   130   177   176   ar
   131   597   595   ar
   132   597   598   ar
   133   201   199    1
   134   417   415    1
   135   126   124    1
   136   581   580    1
   137   158   152   ar
   138   377   368   ar
   139   377   371   ar
   140   170   171   ar
   141   421   422    1
   142   132   131    2
   143   644   645    1
   144   645   646    1
   145   409   410   ar
   146   184   188    1
   147   422   423    1
   148   618   619   ar
   149   618   617   ar
   150   362   363    1
   151   362   361    1
   152   124   125    1
   153   124   123    1
   154   611   612   ar
   155   150   151   ar
   156   392   393   ar
   157   629   630    1
   158   595   594   ar
   159   199   186    1
   160   199   202    1
   161   630   631    1
   162   156   155   ar
   163   368   369   ar
   164   129   125    1
   165   129   130    1
   166   186   185    1
   167   619   613   ar
   168   415   413   ar
   169   350   349    2
   170   588   598   ar
   171   588   589   ar
   172   185   187    1
   173   395   393   ar
   174   395   397    1
   175   598   591   ar
   176   176   174   ar
   177   570   569    2
   178   372   371   ar
   179   372   373    1
   180   371   370   ar
   181   632   631   ar
   182   632   633   ar
   183   123   122    1
   184   131   130   ar
   185   131   133   ar
   186   393   394    2
   187   580   577    1
   188   631   640   ar
   189   171   172    2
   190   171   173   ar
   191   152   151   ar
   192   152   153   ar
   193   351   349   ar
   194   351   352   ar
   195   617   616   ar
   196   130   137   ar
   197   190   189   ar
   198   190   191   ar
   199   349   348   ar
   200   566   567    1
   201   566   564    1
   202   410   411    2
   203   410   412   ar
   204   361   360    1
   205   612   613   ar
   206   646   647    1
   207   646   648    1
   208   188   187    1
   209   188   189    1
   210   423   424    1
   211   423   425    1
   212   594   592   ar
   213   155   153   ar
   214   613   614   ar
   215   369   370   ar
   216   413   412   ar
   217   413   414    2
   218   589   590   ar
   219   578   577    2
   220   202   203    1
   221   424   428    1
   222   567   563    1
   223   567   568    1
   224   353   352    2
   225   647   651    1
   226   189   198   ar
   227   174   173   ar
   228   174   175    1
   229   591   592   ar
   230   591   590   ar
   231   565   577    1
   232   565   564    1
   233   153   154    1
   234   569   568   ar
   235   569   571   ar
   236   665   663    2
   237   191   192   ar
   238   436   435   ar
   239   436   429   ar
   240   133   134   ar
   241   633   634   ar
   242   352   354   ar
   243   435   433   ar
   244   122   119    1
   245   577   579    1
   246   360   357    1
   247   564   562    1
   248   616   614   ar
   249   640   639   ar
   250   640   634   ar
   251   137   136   ar
   252   203   204    1
   253   592   593    2
   254   648   649    1
   255   648   650    1
   256   649   663    1
   257   334   333    1
   258   425   426    1
   259   425   427    1
   260   348   347    1
   261   348   355   ar
   262   346   347    1
   263   346   344    1
   264   563   562    1
   265   664   663    1
   266   653   654   ar
   267   653   652   ar
   268   614   615    1
   269   568   575   ar
   270   663   666    1
   271   112   111    2
   272   562   561    1
   273   439   437    2
   274   426   437    1
   275   571   572   ar
   276   347   343    1
   277   120   119    2
   278   639   638   ar
   279   634   635   ar
   280   428   429    1
   281   428   427    1
   282   216   217   ar
   283   216   214   ar
   284   429   430   ar
   285   654   655   ar
   286    96    95    1
   287   651   652    1
   288   651   650    1
   289   134   136   ar
   290   134   135    1
   291   198   192   ar
   292   198   197   ar
   293   192   193   ar
   294   433   434    1
   295   433   432   ar
   296   332   333   ar
   297   332   330   ar
   298   119   107    1
   299   119   121    1
   300   354   355   ar
   301   354   356    1
   302   550   549    2
   303   217   210   ar
   304   652   662   ar
   305   333   335   ar
   306   220   218    2
   307   108   109    1
   308   108   106    1
   309   215   214    1
   310   437   438    1
   311   437   440    1
   312   111   113   ar
   313   111   110   ar
   314   357   345    1
   315   357   358    2
   316   357   359    1
   317   345   344    1
   318   344   342    1
   319   311   310    2
   320   204   205    1
   321   204   206    1
   322   575   574   ar
   323   561   560    1
   324   214   213   ar
   325   113   114   ar
   326   572   574   ar
   327   572   573    2
   328   331   330    2
   329   534   533    1
   330   666   667    1
   331   343   342    1
   332   107   106    1
   333   197   196   ar
   334   430   432   ar
   335   430   431    2
   336   205   209    1
   337   638   637   ar
   338   453   452    1
   339   206   207    1
   340   206   208    1
   341   330   329   ar
   342   635   637   ar
   343   635   636    1
   344   207   218    1
   345   655   662   ar
   346   655   656   ar
   347    95    94   ar
   348    95    97   ar
   349   109   110    1
   350   109   105    1
   351   312   310   ar
   352   312   313   ar
   353   193   194    1
   354   193   195   ar
   355   359   314    1
   356    94    92   ar
   357   549   551   ar
   358   549   548   ar
   359   218   219    1
   360   218   221    1
   361   310   309   ar
   362   662   661   ar
   363   574   576    1
   364   454   452   ar
   365   454   455   ar
   366   110   117   ar
   367   106   104    1
   368   342   341    1
   369   210   209    1
   370   210   211   ar
   371   686   684    2
   372   335   336   ar
   373   546   547    1
   374   546   544    1
   375   551   552   ar
   376   314   313    1
   377   667   668    1
   378   560   557    1
   379   532   533   ar
   380   532   530   ar
   381   440   441    1
   382   452   451   ar
   383   547   548    1
   384   547   543    1
   385   114   115    2
   386   114   116   ar
   387   676   675   ar
   388   676   677   ar
   389   533   535   ar
   390   213   211   ar
   391   209   208    1
   392   196   195   ar
   393   313   315   ar
   394    97    98   ar
   395   657   656    2
   396   234   233    1
   397   656   658   ar
   398   675   674   ar
   399   329   336   ar
   400   329   328    1
   401   455   448   ar
   402   235   233   ar
   403   235   236   ar
   404   104   105    1
   405   104   103    1
   406   548   555   ar
   407   211   212    2
   408   273   272    2
   409   475   473    1
   410    92    93    2
   411    92    91   ar
   412   253   252    2
   413   679   678    1
   414   531   530    2
   415   661   659   ar
   416   685   684    1
   417   117   116   ar
   418   684   671    1
   419   684   687    1
   420   221   222    1
   421   309   308    1
   422   309   316   ar
   423   295   294    1
   424   307   308    1
   425   307   305    1
   426   472   471    2
   427   341   340    1
   428   530   529   ar
   429   233   232   ar
   430   116   118    1
   431   552   553    2
   432   552   554   ar
   433   543   542    1
   434   340   337    1
   435   545   544    1
   436   545   557    1
   437   544   542    1
   438   441   442    1
   439   308   304    1
   440     1     2    1
   441   236   229   ar
   442   451   449   ar
   443   535   536   ar
   444   677   678   ar
   445   677   683   ar
   446   557   558    2
   447   557   559    1
   448   668   670    1
   449   668   669    1
   450   327   328    1
   451   327   325    1
   452    98    91   ar
   453    98    88   ar
   454   492   491    1
   455   328   324    1
   456    11    10   ar
   457    11    12   ar
   458   658   659   ar
   459   315   316   ar
   460   315   317    1
   461   670   671    1
   462   670   672    1
   463   678   680   ar
   464   293   294   ar
   465   293   291   ar
   466   542   541    1
   467   272   274   ar
   468   272   271   ar
   469   256   254    1
   470   458   456    2
   471   274   275   ar
   472    14    13    1
   473   659   660    1
   474    91    90   ar
   475   669   673    1
   476   555   554   ar
   477   674   683   ar
   478   674   673    1
   479   448   449   ar
   480   448   447    1
   481   339   337    2
   482    35    34    2
   483   252   254   ar
   484   252   251   ar
   485   471   473   ar
   486   471   470   ar
   487   294   296   ar
   488   103   102    1
   489   473   474   ar
   490   511   510    2
   491    10     9   ar
   492   700   699    1
   493     2     3    1
   494   697   696   ar
   495   697   698   ar
   496    74    73    1
   497   554   556    1
   498   687   688    1
   499   222   223    1
   500   449   450    2
   501   305   306    1
   502   305   303    1
   503   325   326    1
   504   325   323    1
   505   529   536   ar
   506   529   528   ar
   507   443   442    1
   508   443   447    1
   509   337   326    1
   510   337   338    1
   511   536   526   ar
   512    38    36    1
   513   232   230   ar
   514   683   682   ar
   515   442   444    1
   516   319   318    2
   517   306   318    1
   518   292   291    2
   519   444   445    1
   520   444   446    1
   521    12    13   ar
   522    12    18   ar
   523   673   672    1
   524   254   255   ar
   525   304   303    1
   526   102    99    1
   527   229   230   ar
   528   229   228    1
   529   291   290   ar
   530   224   223    1
   531   224   228    1
   532    13    15   ar
   533    86    87    1
   534    86    84    1
   535    88    87    1
   536    88    89   ar
   537   324   323    1
   538   276   275    1
   539   696   695   ar
   540   456   457    2
   541   456   459    1
   542   251   249   ar
   543    72    73   ar
   544    72    70   ar
   545   491   493   ar
   546   491   490   ar
   547    55    54    1
   548   447   446    1
   549   721   720    1
   550   275   277   ar
   551   680   681   ar
   552   271   270   ar
   553   271   278   ar
   554    87    83    1
   555   510   509   ar
   556   510   512   ar
   557   474   467   ar
   558    34    36   ar
   559    34    33   ar
   560   321   318    1
   561   321   322    1
   562   509   507   ar
   563    73    75   ar
   564   699   698   ar
   565   699   701   ar
   566    90    89   ar
   567   698   704   ar
   568   470   468   ar
   569     4     3    1
   570     4     8    1
   571   230   231    2
   572   318   320    1
   573   541   540    1
   574   303   302    1
   575   223   225    1
   576     9    18   ar
   577     9     8    1
   578   296   297   ar
   579   948   947    2
   580   493   494   ar
   581   688   689    1
   582   239   237    2
   583   270   269   ar
   584   323   322    1
   585     3     5    1
   586    36    37   ar
   587    71    70    2
   588   228   227    1
   589   528   527   ar
   590   490   488   ar
   591    18    17   ar
   592   526   525    1
   593   526   527   ar
   594   682   681   ar
   595   459   460    1
   596    70    69   ar
   597   225   227    1
   598   225   226    1
   599   969   968    2
   600   540   537    1
   601    15    16   ar
   602   255   248   ar
   603   290   297   ar
   604   290   289    1
   605    21    19    2
   606   951   952    1
   607   951   950    1
   608     8     7    1
   609   934   947    1
   610   934   933    1
   611   278   277   ar
   612   278   268   ar
   613   720   722   ar
   614   720   719   ar
   615    84    85    1
   616    84    82    1
   617    54    53   ar
   618    54    56   ar
   619    33    31   ar
   620   695   704   ar
   621   695   694    1
   622   249   248   ar
   623   249   250    2
   624     5     6    1
   625     5     7    1
   626   524   525    1
   627   524   522    1
   628    85    99    1
   629   508   507    2
   630    99   101    2
   631    99   100    1
   632   525   521    1
   633   467   468   ar
   634   467   466    1
   635   507   506   ar
   636   722   723   ar
   637   701   702   ar
   638   512   514    1
   639   512   513   ar
   640   468   469    2
   641    53    51   ar
   642   704   703   ar
   643   690   689    1
   644   690   694    1
   645    83    82    1
   646    75    76   ar
   647   947   950    1
   648   947   949    1
   649   301   302    1
   650   301   298    1
   651   689   691    1
   652   707   705    2
   653   955   968    1
   654   955   954    1
   655   494   487   ar
   656   248   247    1
   657   269   268   ar
   658   226   237    1
   659    37    30   ar
   660   952   954    1
   661   952   953    1
   662    17    16   ar
   663   237   240    1
   664   237   238    1
   665   931   933    1
   666   931   930    1
   667   931   932    1
   668   691   692    1
   669   691   693    1
   670   460   461    1
   671     6    19    1
   672   488   487   ar
   673   488   489    2
   674   968   970    1
   675   968   971    1
   676    82    81    1
   677   935   933    1
   678   935   936    1
   679   694   693    1
   680   719   717   ar
   681   478   476    2
   682   289   288    1
   683   289   285    1
   684    69    76   ar
   685    69    68    1
   686   288   286    1
   687   268   267    1
   688    56    57   ar
   689   929   930    1
   690   929   926    1
   691   462   466    1
   692   462   461    1
   693   705   692    1
   694   705   706    1
   695   705   708    1
   696    19    20    1
   697    19    22    1
   698   537   523    1
   699   537   539    2
   700   537   538    1
   701   506   513   ar
   702   506   505    1
   703   702   703   ar
   704   522   523    1
   705   522   520    1
   706    31    30   ar
   707    31    32    2
   708   487   486    1
   709   954   956    1
   710   466   465    1
   711   240   241    1
   712   723   716   ar
   713   300   298    2
   714   932   936    1
   715    51    52    2
   716    51    50   ar
   717   521   520    1
   718   972   971    1
   719   972   973    1
   720    30    29    1
   721   461   463    1
   722   953   957    1
   723   936   937    1
   724  1138  1137    2
   725   259   257    2
   726   298   287    1
   727   298   299    1
   728   463   465    1
   729   463   464    1
   730   989   988    2
   731  1332  1331    1
   732  1332  1343    1
   733   286   287    1
   734   286   284    1
   735  1329  1328    1
   736  1329  1330    1
   737  1329  1331    1
   738    68    67    1
   739    68    64    1
   740   247   243    1
   741   247   246    1
   742  1347  1348    1
   743  1347  1346    1
   744  1344  1343    2
   745    22    23    1
   746   717   716   ar
   747   717   718    2
   748   285   284    1
   749   927   926    2
   750   913   926    1
   751   913   912    1
   752    67    65    1
   753   708   709    1
   754   520   519    1
   755  1328  1327    1
   756    57    50   ar
   757   956   957    1
   758    81    80    1
   759   243   242    1
   760   926   928    1
   761   716   715    1
   762   476   479    1
   763   476   464    1
   764   476   477    1
   765   267   266    1
   766   267   263    1
   767  1140  1137    1
   768  1140  1141    1
   769  1333  1331    1
   770  1333  1334    1
   771    50    49    1
   772  1330  1334    1
   773    80    77    1
   774   505   504    1
   775   505   501    1
   776  1348  1349    1
   777  1348  1350    1
   778  1161  1159    2
   779  1123  1137    1
   780  1123  1122    1
   781   976   988    1
   782   976   975    1
   783   973   975    1
   784   973   974    1
   785   479   480    1
   786   246   244    1
   787   281   279    2
   788  1343  1346    1
   789  1343  1345    1
   790   988   991    1
   791   988   990    1
   792   266   264    1
   793   486   482    1
   794   486   485    1
   795   244   242    1
   796   244   245    1
   797   957   958    1
   798   241   242    1
   799  1160  1159    1
   800  1137  1139    1
   801  1334  1335    1
   802    29    25    1
   803    29    28    1
   804   284   283    1
   805  1349  1353    1
   806   482   481    1
   807  1145  1159    1
   808  1145  1144    1
   809    25    24    1
   810   914   912    1
   811   914   915    1
   812   257   260    1
   813   257   245    1
   814   257   258    1
   815   282   279    1
   816   282   283    1
   817   504   502    1
   818   260   261    1
   819  1142  1141    1
   820  1142  1143    1
   821  1142  1144    1
   822  1159  1162    1
   823  1124  1122    1
   824  1124  1125    1
   825   263   262    1
   826    64    63    1
   827   910   912    1
   828   910   911    1
   829   910   909    1
   830   937   946   ar
   831   937   938   ar
   832   975   977    1
   833  1120  1122    1
   834  1120  1121    1
   835  1120  1119    1
   836   264   262    1
   837   264   265    1
   838   991   992    1
   839    23    24    1
   840   518   519    1
   841   518   515    1
   842  1143  1147    1
   843    65    63    1
   844    65    66    1
   845    41    39    2
   846   485   483    1
   847  1351  1350    1
   848  1351  1362    1
   849   501   500    1
   850   945   946   ar
   851   945   944   ar
   852  1327  1324    1
   853   709   710    1
   854   974   978    1
   855   915   911    1
   856   915   916    1
   857   711   715    1
   858   711   710    1
   859   715   714    1
   860   279   265    1
   861   279   280    1
   862    28    26    1
   863  1125  1121    1
   864  1125  1126    1
   865   483   481    1
   866   483   484    1
   867  1350  1352    1
   868  1363  1362    2
   869    26    24    1
   870    26    27    1
   871    49    48    1
   872    49    45    1
   873  1325  1324    2
   874  1144  1146    1
   875   480   481    1
   876    79    77    2
   877    77    66    1
   878    77    78    1
   879  1337  1336    2
   880  1313  1314    1
   881  1313  1311    1
   882   958   959   ar
   883   958   967   ar
   884   497   495    2
   885  1312  1324    1
   886  1312  1311    1
   887   502   500    1
   888   502   503    1
   889   909   908    1
   890   946   940   ar
   891   262   261    1
   892   959   960   ar
   893  1353  1352    1
   894  1353  1354    1
   895  1119  1118    1
   896   938   939   ar
   897    63    62    1
   898    60    58    2
   899    48    46    1
   900   924   923   ar
   901   924   925   ar
   902  1335  1336   ar
   903  1335  1342   ar
   904  1317  1316    2
   905   517   515    2
   906  1324  1326    1
   907    61    62    1
   908    61    58    1
   909   710   712    1
   910   992   993    1
   911  1147  1146    1
   912  1147  1148    1
   913  1362  1364    1
   914  1362  1365    1
   915  1178  1176    1
   916   712   714    1
   917   712   713    1
   918  1314  1310    1
   919  1314  1315    1
   920   944   943   ar
   921  1311  1309    1
   922   500   499    1
   923   977   978    1
   924   987   985    1
   925   515   503    1
   926   515   516    1
   927  1336  1338   ar
   928   498   495    1
   929   498   499    1
   930  1162  1163    1
   931    45    44    1
   932  1135  1133   ar
   933  1135  1136   ar
   934   923   922   ar
   935  1309  1310    1
   936  1309  1308    1
   937  1134  1133    1
   938    42    39    1
   939    42    43    1
   940    39    27    1
   941    39    40    1
   942   986   985   ar
   943   986   979   ar
   944    46    44    1
   945    46    47    1
   946   495   484    1
   947   495   496    1
   948   978   979    1
   949   916   925   ar
   950   916   917   ar
   951  1366  1365    1
   952  1366  1367    1
   953   726   724    2
   954  1126  1136   ar
   955  1126  1127   ar
   956  1342  1341   ar
   957   925   919   ar
   958  1361  1354   ar
   959  1361  1360   ar
   960    58    47    1
   961    58    59    1
   962   967   966   ar
   963   967   961   ar
   964  1354  1355   ar
   965   902   901    1
   966   960   961   ar
   967   940   939   ar
   968   940   941   ar
   969   908   905    1
   970  1316  1315   ar
   971  1316  1318   ar
   972  1133  1132   ar
   973   985   983   ar
   974  1163  1164    1
   975  1148  1149   ar
   976  1148  1158   ar
   977  1136  1129   ar
   978  1118  1115    1
   979   979   980   ar
   980   966   965   ar
   981    44    43    1
   982   993   994    1
   983   993   995    1
   984  1315  1322   ar
   985   713   724    1
   986   906   905    2
   987  1149  1150   ar
   988  1308  1307    1
   989   943   941   ar
   990  1108  1107    2
   991  1176  1177   ar
   992  1176  1174   ar
   993   725   724    1
   994   994   998    1
   995  1338  1339   ar
   996   961   962   ar
   997   922   920   ar
   998  1367  1368    1
   999  1367  1369    1
  1000   724   727    1
  1001   891   905    1
  1002   891   890    1
  1003  1360  1358   ar
  1004   917   918   ar
  1005   892   890    1
  1006   892   893    1
  1007  1127  1128   ar
  1008   941   942    1
  1009  1011  1009    2
  1010  1355  1356    2
  1011  1355  1357   ar
  1012   901   903   ar
  1013   901   900   ar
  1014  1368  1372    1
  1015  1117  1115    2
  1016   905   907    1
  1017  1341  1339   ar
  1018  1177  1170   ar
  1019  1109  1107   ar
  1020  1109  1110   ar
  1021  1318  1319   ar
  1022   919   920   ar
  1023   919   918   ar
  1024   903   904   ar
  1025  1107  1106   ar
  1026  1175  1174    2
  1027  1115  1116    1
  1028  1115  1103    1
  1029  1000  1001   ar
  1030  1000   999   ar
  1031  1158  1157   ar
  1032  1158  1151   ar
  1033  1132  1130   ar
  1034  1157  1155   ar
  1035   995   996    1
  1036   995   997    1
  1037  1104  1105    1
  1038  1104  1102    1
  1039  1129  1128   ar
  1040  1129  1130   ar
  1041  1339  1340    1
  1042  1164  1166    1
  1043  1164  1165    1
  1044   983   982   ar
  1045   983   984    2
  1046   996  1009    1
  1047  1174  1173   ar
  1048   965   964   ar
  1049  1111  1110    2
  1050   980   982   ar
  1051   980   981    2
  1052   890   888    1
  1053   920   921    1
  1054  1166  1168    1
  1055  1166  1167    1
  1056  1322  1321   ar
  1057  1307  1304    1
  1058  1001  1002   ar
  1059  1150  1151   ar
  1060  1110  1112   ar
  1061  1010  1009    1
  1062   893   889    1
  1063   893   894    1
  1064   900   898   ar
  1065  1168  1169    1
  1066  1358  1357   ar
  1067  1358  1359    1
  1068  1009  1012    1
  1069   745   743    2
  1070   998   999    1
  1071   998   997    1
  1072   962   964   ar
  1073   962   963    1
  1074  1369  1370    1
  1075  1369  1371    1
  1076   727   728    1
  1077   728   729    1
  1078  1298  1282    1
  1079  1298  1297    1
  1080  1105  1106    1
  1081  1105  1101    1
  1082  1130  1131    2
  1083  1370  1381    1
  1084  1106  1113   ar
  1085  1165  1169    1
  1086   888   889    1
  1087   888   887    1
  1088   904   894   ar
  1089   904   897   ar
  1090  1151  1152   ar
  1091  1372  1373    1
  1092  1372  1371    1
  1093  1092  1091    1
  1094   999  1008   ar
  1095  1170  1169    1
  1096  1170  1171   ar
  1097  1319  1321   ar
  1098  1319  1320    2
  1099  1181  1179    2
  1100  1103  1102    1
  1101  1282  1281    2
  1102  1090  1091   ar
  1103  1090  1088   ar
  1104  1380  1373   ar
  1105  1380  1379   ar
  1106  1089  1088    2
  1107  1305  1304    2
  1108  1102  1100    1
  1109  1321  1323    1
  1110  1195  1194    2
  1111  1155  1156    1
  1112  1155  1154   ar
  1113   894   895   ar
  1114   732   743    1
  1115   732   731    1
  1116  1167  1179    1
  1117  1382  1381    2
  1118  1112  1113   ar
  1119  1112  1114    1
  1120   880   879    1
  1121  1173  1171   ar
  1122  1373  1374   ar
  1123  1304  1293    1
  1124  1304  1306    1
  1125   898   897   ar
  1126   898   899    2
  1127   744   743    1
  1128   743   746    1
  1129  1091  1093   ar
  1130  1002  1008   ar
  1131  1002  1003   ar
  1132  1068  1067    1
  1133  1025  1024    1
  1134  1088  1087   ar
  1135  1379  1377   ar
  1136   897   896   ar
  1137  1297  1299    2
  1138  1297  1296    1
  1139  1022  1021   ar
  1140  1022  1023   ar
  1141  1171  1172    2
  1142  1179  1180    1
  1143  1179  1182    1
  1144  1299  1300    1
  1145  1012  1013    1
  1146  1381  1383    1
  1147  1381  1384    1
  1148   729   731    1
  1149   729   730    1
  1150  1192  1193   ar
  1151  1192  1191   ar
  1152   887   886    1
  1153  1008  1007   ar
  1154  1101  1100    1
  1155  1046  1045    2
  1156   731   733    1
  1157  1280  1281    2
  1158  1280  1278    1
  1159  1293  1292    1
  1160  1281  1283    1
  1161  1152  1154   ar
  1162  1152  1153    2
  1163  1100  1099    1
  1164  1194  1193    1
  1165  1194  1196    1
  1166  1004  1003    1
  1167  1021  1020   ar
  1168   895   896   ar
  1169   879   878   ar
  1170   879   881   ar
  1171  1217  1216    2
  1172  1374  1375    2
  1173  1374  1376   ar
  1174  1003  1005   ar
  1175  1193  1200   ar
  1176   886   883    1
  1177   878   876   ar
  1178  1191  1190   ar
  1179  1024  1023   ar
  1180  1024  1026   ar
  1181  1023  1029   ar
  1182  1296  1295    1
  1183  1296  1303    1
  1184  1295  1294    1
  1185  1295  1291    1
  1186  1093  1094   ar
  1187  1377  1376   ar
  1188  1377  1378    1
  1189  1067  1069   ar
  1190  1067  1066   ar
  1191  1087  1094   ar
  1192  1087  1086   ar
  1193   746   747    1
  1194   737   736    2
  1195  1300  1301    1
  1196  1300  1302    2
  1197   730   734    1
  1198  1279  1278    2
  1199  1013  1014    1
  1200   765   764    2
  1201   766   764    1
  1202  1032  1030    2
  1203   747   748    1
  1204  1182  1183    1
  1205  1278  1277    1
  1206  1069  1070   ar
  1207   881   882   ar
  1208  1045  1044    1
  1209  1045  1047    1
  1210  1283  1284    1
  1211  1257  1256    2
  1212  1007  1006   ar
  1213  1294  1292    1
  1214  1043  1044   ar
  1215  1043  1042   ar
  1216   884   883    2
  1217  1384  1385    1
  1218  1196  1197    2
  1219  1292  1290    1
  1220  1220  1218    1
  1221  1094  1084   ar
  1222   733   734    1
  1223  1258  1256   ar
  1224  1258  1259   ar
  1225  1291  1290    1
  1226  1385  1386    1
  1227  1099  1098    1
  1228  1260  1259    1
  1229  1237  1236    2
  1230  1098  1095    1
  1231   764   751    1
  1232   764   767    1
  1233  1020  1029   ar
  1234  1020  1019    1
  1235  1216  1218   ar
  1236  1216  1215   ar
  1237   751   750    1
  1238   883   885    1
  1239   883   869    1
  1240   876   877    2
  1241   876   875   ar
  1242  1044  1051   ar
  1243  1005  1006   ar
  1244  1086  1085   ar
  1245  1066  1065   ar
  1246  1066  1072   ar
  1247  1065  1064   ar
  1248  1015  1014    1
  1249  1015  1019    1
  1250  1026  1027   ar
  1251  1303  1302    1
  1252  1200  1190   ar
  1253  1200  1199    1
  1254  1029  1028   ar
  1255  1190  1189    1
  1256  1290  1289    1
  1257  1256  1255   ar
  1258   734   735    1
  1259  1047  1048    2
  1260  1014  1016    1
  1261   736   738   ar
  1262   736   735   ar
  1263   870   871    1
  1264   870   868    1
  1265  1284  1277   ar
  1266  1284  1274   ar
  1267   882   875   ar
  1268   882   872   ar
  1269  1259  1261   ar
  1270  1218  1219   ar
  1271  1183  1184    1
  1272   748   750    1
  1273   748   749    1
  1274  1042  1041   ar
  1275  1277  1276   ar
  1276   750   752    1
  1277  1030  1017    1
  1278  1030  1031    1
  1279  1030  1033    1
  1280  1070  1071   ar
  1281  1016  1017    1
  1282  1016  1018    1
  1283  1185  1189    1
  1284  1185  1184    1
  1285  1197  1199    1
  1286  1197  1198    2
  1287  1019  1018    1
  1288   875   874   ar
  1289  1215  1213   ar
  1290  1084  1085   ar
  1291  1084  1083    1
  1292  1387  1386    1
  1293  1387  1391    1
  1294   869   868    1
  1295  1236  1235   ar
  1296  1236  1238   ar
  1297   738   739   ar
  1298   735   742   ar
  1299  1386  1388    1
  1300  1097  1095    2
  1301  1393  1394   ar
  1302  1393  1392   ar
  1303  1027  1028   ar
  1304  1189  1188    1
  1305  1394  1395   ar
  1306  1064  1063   ar
  1307  1095  1096    1
  1308  1095  1081    1
  1309  1072  1071   ar
  1310  1072  1063   ar
  1311  1051  1041   ar
  1312  1051  1050    1
  1313   871   872    1
  1314   871   867    1
  1315   767   768    1
  1316   755   756   ar
  1317   755   754   ar
  1318   868   866    1
  1319  1184  1186    1
  1320   872   873   ar
  1321  1235  1233   ar
  1322  1082  1083    1
  1323  1082  1080    1
  1324  1033  1034    1
  1325  1255  1262   ar
  1326  1255  1254   ar
  1327  1048  1050    1
  1328  1048  1049    2
  1329   756   757   ar
  1330  1289  1288    1
  1331   749   753    1
  1332  1203  1201    2
  1333  1041  1040    1
  1334  1240  1238    1
  1335  1198  1049    1
  1336  1274  1273    1
  1337  1274  1275   ar
  1338  1261  1262   ar
  1339  1219  1212   ar
  1340  1276  1275   ar
  1341  1186  1188    1
  1342  1186  1187    1
  1343  1083  1079    1
  1344   874   873   ar
  1345  1080  1081    1
  1346  1080  1078    1
  1347   752   753    1
  1348  1238  1239   ar
  1349  1063  1062    1
  1350  1392  1391    1
  1351  1392  1402   ar
  1352  1272  1273    1
  1353  1272  1270    1
  1354  1273  1269    1
  1355  1213  1212   ar
  1356  1213  1214    2
  1357  1391  1390    1
  1358  1388  1389    1
  1359  1388  1390    1
  1360  1262  1252   ar
  1361  1288  1285    1
  1362   785   783    2
  1363  1054  1052    2
  1364   739   740    1
  1365   739   741   ar
  1366   768   769    1
  1367  1395  1402   ar
  1368  1395  1396   ar
  1369   754   753    1
  1370   754   763   ar
  1371   742   741   ar
  1372  1254  1253   ar
  1373   781   782   ar
  1374   781   779   ar
  1375  1212  1211    1
  1376   784   783    1
  1377   867   866    1
  1378   802   800    1
  1379   866   865    1
  1380  1397  1396    2
  1381  1233  1234    2
  1382  1233  1232   ar
  1383  1389  1403    1
  1384  1034  1035    1
  1385  1405  1403    2
  1386   757   763   ar
  1387   757   758   ar
  1388  1187  1201    1
  1389  1036  1040    1
  1390  1036  1035    1
  1391  1422  1420    1
  1392  1402  1401   ar
  1393   780   779    1
  1394  1075  1073    2
  1395  1396  1398   ar
  1396  1040  1039    1
  1397  1201  1204    1
  1398  1201  1202    1
  1399   782   775   ar
  1400  1079  1078    1
  1401   783   772    1
  1402   783   786    1
  1403   759   758    1
  1404  1239  1232   ar
  1405  1078  1077    1
  1406   763   762   ar
  1407  1037  1035    1
  1408  1037  1039    1
  1409  1037  1038    1
  1410   858   857    1
  1411  1403  1404    1
  1412  1403  1406    1
  1413   779   778   ar
  1414  1269  1268    1
  1415  1062  1061    1
  1416  1062  1058    1
  1417  1270  1271    1
  1418  1270  1268    1
  1419  1252  1253   ar
  1420  1252  1251    1
  1421  1076  1077    1
  1422  1076  1073    1
  1423  1204  1205    1
  1424  1061  1059    1
  1425   758   760   ar
  1426  1232  1231    1
  1427   799   798    2
  1428   769   771    1
  1429   769   770    1
  1430  1285  1271    1
  1431  1285  1287    2
  1432  1285  1286    1
  1433  1052  1038    1
  1434  1052  1055    1
  1435  1052  1053    1
  1436  1056  1055    1
  1437  1056  1057    1
  1438   856   857   ar
  1439   856   854   ar
  1440   771   772    1
  1441   771   773    1
  1442   865   864    1
  1443   864   861    1
  1444  1401  1399   ar
  1445  1073  1074    1
  1446  1073  1060    1
  1447  1058  1057    1
  1448   800   798   ar
  1449   800   801   ar
  1450  1419  1418    2
  1451  1059  1057    1
  1452  1059  1060    1
  1453  1211  1207    1
  1454  1211  1210    1
  1455  1398  1399   ar
  1456   857   859   ar
  1457   770   774    1
  1458   855   854    2
  1459  1268  1267    1
  1460   786   787    1
  1461  1420  1418   ar
  1462  1420  1421   ar
  1463   775   774    1
  1464   775   776   ar
  1465  1207  1206    1
  1466   798   797   ar
  1467   762   761   ar
  1468  1223  1221    2
  1469   839   838    1
  1470   854   853   ar
  1471  1399  1400    1
  1472  1251  1250    1
  1473  1251  1247    1
  1474   778   776   ar
  1475  1210  1208    1
  1476  1418  1417   ar
  1477  1406  1407    1
  1478   760   761   ar
  1479   822   820    1
  1480  1208  1206    1
  1481  1208  1209    1
  1482   774   773    1
  1483  1205  1206    1
  1484   801   794   ar
  1485   863   861    2
  1486  1250  1248    1
  1487  1231  1230    1
  1488  1231  1227    1
  1489   861   862    1
  1490   861   850    1
  1491  1421  1414   ar
  1492   776   777    2
  1493   819   818    2
  1494   859   860   ar
  1495   805   803    2
  1496  1439  1438    1
  1497   787   788    1
  1498   851   849    1
  1499   851   852    1
  1500  1407  1408    1
  1501  1267  1266    1
  1502   853   860   ar
  1503   853   852    1
  1504  1230  1228    1
  1505  1266  1263    1
  1506   838   837   ar
  1507   838   840   ar
  1508  1247  1246    1
  1509  1227  1226    1
  1510   797   795   ar
  1511  1243  1241    2
  1512  1221  1209    1
  1513  1221  1224    1
  1514  1221  1222    1
  1515  1460  1459    2
  1516  1417  1415   ar
  1517  1224  1225    1
  1518   850   849    1
  1519  1248  1246    1
  1520  1248  1249    1
  1521   837   835   ar
  1522   820   818   ar
  1523   820   821   ar
  1524   818   817   ar
  1525   849   847    1
  1526   794   795   ar
  1527   794   793    1
  1528  1228  1226    1
  1529  1228  1229    1
  1530   852   848    1
  1531   840   841   ar
  1532  1414  1415   ar
  1533  1414  1413    1
  1534  1425  1423    2
  1535  1244  1241    1
  1536  1244  1245    1
  1537  1409  1408    1
  1538  1409  1413    1
  1539   790   788    1
  1540   790   791    1
  1541   790   792    1
  1542   788   789    1
  1543   803   804    1
  1544   803   791    1
  1545   803   806    1
  1546   789   793    1
  1547  1438  1437   ar
  1548  1438  1440   ar
  1549   795   796    2
  1550  1246  1245    1
  1551  1226  1225    1
  1552  1265  1263    2
  1553  1436  1437   ar
  1554  1436  1435   ar
  1555  1408  1410    1
  1556  1459  1458   am
  1557  1459  1461    1
  1558  1415  1416    2
  1559  1241  1229    1
  1560  1241  1242    1
  1561  1263  1249    1
  1562  1263  1264    1
  1563   793   792    1
  1564   821   814   ar
  1565  1437  1443   ar
  1566  1458  1456   am
  1567  1413  1412    1
  1568   817   815   ar
  1569   835   836    2
  1570   835   834   ar
  1571  1410  1411    1
  1572  1410  1412    1
  1573  1440  1441   ar
  1574  1463  1461    1
  1575   848   847    1
  1576   806   807    1
  1577   841   834   ar
  1578   847   846    1
  1579  1423  1411    1
  1580  1423  1424    1
  1581  1423  1426    1
  1582  1461  1462    2
  1583  1435  1434   ar
  1584   834   833    1
  1585   846   845    1
  1586   814   815   ar
  1587   814   813    1
  1588   844   842    2
  1589  1456  1457    2
  1590  1456  1455    2
  1591   815   816    2
  1592  1443  1434   ar
  1593  1443  1442   ar
  1594  1441  1442   ar
  1595   825   823    2
  1596  1426  1427    1
  1597   845   842    1
  1598   807   808    1
  1599  1434  1433    1
  1600  1462  1455    1
  1601   832   833    1
  1602   832   830    1
  1603   809   813    1
  1604   809   808    1
  1605   833   829    1
  1606   842   843    1
  1607   842   831    1
  1608   810   808    1
  1609   810   812    1
  1610   810   811    1
  1611   813   812    1
  1612   830   831    1
  1613   830   828    1
  1614  1429  1433    1
  1615  1429  1428    1
  1616   826   823    1
  1617   826   827    1
  1618  1427  1428    1
  1619   823   811    1
  1620   823   824    1
  1621  1433  1432    1
  1622   829   828    1
  1623  1428  1430    1
  1624   828   827    1
  1625  1430  1432    1
  1626  1430  1431    1
  1627  1431  1444    1
  1628  1450  1454    1
  1629  1450  1449    1
  1630  1454  1453    1
  1631  1449  1451    1
  1632  1449  1448    1
  1633  1447  1444    1
  1634  1447  1448    1
  1635  1453  1451    1
  1636  1444  1445    2
  1637  1444  1446    1
  1638  1451  1452    1
