AFB1t.pdb
  RxDock  09122019423D
librxdock.so/0.1.0
 23 27  0  0  0  0  0  0  0  0999 V2000
    2.4951   -3.7320    2.0376 O   0  0  0  0  0  0
    3.1130   -3.8712    0.9987 C   0  0  0  0  0  0
    4.0033   -4.9874    0.6801 C   0  0  0  0  0  0
    4.6600   -5.9270    1.5759 C   0  0  0  0  0  0
    4.6382   -5.8347    2.7987 O   0  0  0  0  0  0
    5.3764   -6.9332    0.9304 O   0  0  0  0  0  0
    5.4785   -7.0037   -0.4770 C   0  0  0  0  0  0
    6.1335   -8.0999   -1.0055 C   0  0  0  0  0  0
    6.2334   -8.2290   -2.3756 C   0  0  0  0  0  0
    6.8434   -9.3839   -2.7881 O   0  0  0  0  0  0
    6.9366  -10.1925   -1.5865 C   0  0  0  0  0  0
    8.2497  -10.7815   -1.4505 O   0  0  0  0  0  0
    8.8087  -10.1213   -0.3762 C   0  0  0  0  0  0
    8.0232   -9.2560    0.2642 C   0  0  0  0  0  0
    6.6712   -9.3098   -0.3423 C   0  0  0  0  0  0
    5.7062   -7.2943   -3.2490 C   0  0  0  0  0  0
    4.9995   -6.2017   -2.7247 C   0  0  0  0  0  0
    4.3663   -5.2712   -3.5078 O   0  0  0  0  0  0
    3.5517   -5.7358   -4.5782 C   0  0  0  0  0  0
    4.8895   -6.0383   -1.3184 C   0  0  0  0  0  0
    4.1281   -4.9759   -0.6554 C   0  0  0  0  0  0
    3.3923   -3.8526   -1.3131 C   0  0  0  0  0  0
    3.0631   -2.9168   -0.1562 C   0  0  0  0  0  0
  1  2  2  0  0  0
  2  3  1  0  0  0
  2 23  1  0  0  0
  3  4  1  0  0  0
  3 21  2  0  0  0
  4  5  2  0  0  0
  4  6  1  0  0  0
  6  7  1  0  0  0
  7  8  1  0  0  0
  7 20  2  0  0  0
  8  9  2  0  0  0
  8 15  1  0  0  0
  9 10  1  0  0  0
  9 16  1  0  0  0
 10 11  1  0  0  0
 11 12  1  0  0  0
 11 15  1  0  0  0
 12 13  1  0  0  0
 13 14  2  0  0  0
 14 15  1  0  0  0
 16 17  2  0  0  0
 17 18  1  0  0  0
 17 20  1  0  0  0
 18 19  1  0  0  0
 20 21  1  0  0  0
 21 22  1  0  0  0
 22 23  1  0  0  0
M  END
>  <AUTHOR>
    GENERATED BY OPEN BABEL 3.1.0

>  <CHROM.1>
46.69421747,5.28426030,-6.78209641,-0.81229774,-2.83522085,0.91775710,-1.65524365

>  <COMPND>
    UNNAMED

>  <MASTER>
        0    0    0    0    0    0    0    0   35    0   35    0

>  <Name>
AFB1t.pdb

>  <RI>
0

>  <Rbt.Current_Directory>
/home/fc/tossine/AF_1/p3/2_clust04

>  <Rbt.Executable>
rbdock/0.1.0

>  <Rbt.Library>
librxdock.so/0.1.0

>  <Rbt.Parameter_File>
/cluster/rxdock/data/scripts/dock.prm

>  <Rbt.Receptor>
rx_2.prm

>  <SCORE>
-5.21918

>  <SCORE.INTER>
-6.05549

>  <SCORE.INTER.CONST>
1

>  <SCORE.INTER.POLAR>
0

>  <SCORE.INTER.REPUL>
1.49937

>  <SCORE.INTER.ROT>
1

>  <SCORE.INTER.VDW>
-19.9523

>  <SCORE.INTER.norm>
-0.263282

>  <SCORE.INTRA>
-0.272532

>  <SCORE.INTRA.DIHEDRAL>
2.50517

>  <SCORE.INTRA.DIHEDRAL.0>
0.0968638

>  <SCORE.INTRA.POLAR>
0

>  <SCORE.INTRA.POLAR.0>
0

>  <SCORE.INTRA.REPUL>
0

>  <SCORE.INTRA.REPUL.0>
0

>  <SCORE.INTRA.VDW>
-1.52512

>  <SCORE.INTRA.VDW.0>
2.11718

>  <SCORE.INTRA.norm>
-0.0118492

>  <SCORE.RESTR>
1.10885

>  <SCORE.RESTR.CAVITY>
1.10885

>  <SCORE.RESTR.norm>
0.0482108

>  <SCORE.SYSTEM>
0

>  <SCORE.SYSTEM.CONST>
0

>  <SCORE.SYSTEM.DIHEDRAL>
0

>  <SCORE.SYSTEM.norm>
0

>  <SCORE.heavy>
23

>  <SCORE.norm>
-0.226921

$$$$
