@<TRIPOS>MOLECULE
dna.pdb
 1638 1835 0 0 0
SMALL
GASTEIGER

@<TRIPOS>ATOM
      1  O5'       39.9230   30.3550    7.2300 O.3     1  DA1        -0.2176
      2  C5'       39.5280   31.5600    6.5850 C.3     1  DA1         0.2140
      3  C4'       40.5620   32.1010    5.6290 C.3     1  DA1         0.1776
      4  O4'       41.7220   32.5630    6.3790 O.3     1  DA1        -0.3326
      5  C3'       41.0620   31.1040    4.5850 C.3     1  DA1         0.1559
      6  O3'       40.7870   31.5180    3.2520 O.3     1  DA1        -0.3138
      7  C2'       42.5720   31.0370    4.7790 C.3     1  DA1         0.0865
      8  C1'       42.9160   32.1690    5.7370 C.3     1  DA1         0.2094
      9  N9        43.7670   31.5930    6.6720 N.ar    1  DA1        -0.2714
     10  C8        43.4630   30.5960    7.5610 C.ar    1  DA1         0.1815
     11  N7        44.5170   30.0270    8.0980 N.ar    1  DA1        -0.2193
     12  C5        45.5850   30.6950    7.5210 C.ar    1  DA1         0.1518
     13  C6        46.9770   30.5630    7.6730 C.ar    1  DA1         0.1919
     14  N6        47.5500   29.6750    8.4880 N.pl3   1  DA1        -0.1054
     15  N1        47.7660   31.3850    6.9500 N.ar    1  DA1        -0.2040
     16  C2        47.1900   32.2750    6.1340 C.ar    1  DA1         0.2016
     17  N3        45.8970   32.4940    5.9070 N.ar    1  DA1        -0.2048
     18  C4        45.1390   31.6610    6.6400 C.ar    1  DA1         0.1691
     19  P         40.6810   30.3760    2.2670 P.3     2  DG2         0.2141
     20  OP1       39.7110   30.6470    1.1700 O.2     2  DG2        -0.5172
     21  OP2       40.4410   29.2450    3.2070 O.3     2  DG2        -0.4373
     22  O5'       42.1180   30.1770    1.6170 O.3     2  DG2        -0.3114
     23  C5'       42.5900   31.0500    0.6200 C.3     2  DG2         0.1811
     24  C4'       44.0510   30.8190    0.4240 C.3     2  DG2         0.1746
     25  O4'       44.7020   31.0570    1.6950 O.3     2  DG2        -0.3327
     26  C3'       44.4530   29.3920    0.0930 C.3     2  DG2         0.1558
     27  O3'       44.2980   29.0490   -1.2830 O.3     2  DG2        -0.3138
     28  C2'       45.9040   29.3660    0.5470 C.3     2  DG2         0.0865
     29  C1'       45.8280   30.2030    1.8230 C.3     2  DG2         0.2094
     30  N9        45.6410   29.3420    2.9550 N.ar    2  DG2        -0.2713
     31  C8        44.5020   29.3850    3.7220 C.ar    2  DG2         0.1816
     32  N7        44.5290   28.5570    4.7310 N.ar    2  DG2        -0.2173
     33  C5        45.7570   27.9300    4.6270 C.ar    2  DG2         0.1748
     34  C6        46.3530   26.9300    5.4370 C.ar    2  DG2         0.3023
     35  O6        45.8900   26.3840    6.4460 O.2     2  DG2        -0.2633
     36  N1        47.6160   26.5710    4.9750 N.ar    2  DG2        -0.1709
     37  C2        48.2290   27.1090    3.8680 C.ar    2  DG2         0.2606
     38  N2        49.4490   26.6360    3.5790 N.pl3   2  DG2        -0.0859
     39  N3        47.6870   28.0380    3.1060 N.ar    2  DG2        -0.1918
     40  C4        46.4600   28.4020    3.5360 C.ar    2  DG2         0.1722
     41  P         43.7590   27.5700   -1.6660 P.3     3  DC3         0.2141
     42  OP1       43.7870   27.5520   -3.1560 O.2     3  DC3        -0.5172
     43  OP2       42.6210   26.9230   -0.9420 O.3     3  DC3        -0.4373
     44  O5'       45.1210   26.9170   -1.1300 O.3     3  DC3        -0.3114
     45  C5'       45.9940   26.2170   -2.0180 C.3     3  DC3         0.1811
     46  C4'       47.1900   25.6450   -1.2790 C.3     3  DC3         0.1746
     47  O4'       47.3630   26.3030    0.0030 O.3     3  DC3        -0.3327
     48  C3'       47.1040   24.1830   -0.8880 C.3     3  DC3         0.1558
     49  O3'       47.3630   23.3100   -1.9410 O.3     3  DC3        -0.3138
     50  C2'       48.1310   24.0670    0.2150 C.3     3  DC3         0.0866
     51  C1'       47.9110   25.3820    0.9480 C.3     3  DC3         0.2106
     52  N1        46.7600   25.0130    2.0230 N.ar    3  DC3        -0.2556
     53  C2        47.1520   24.3880    3.2130 C.ar    3  DC3         0.3531
     54  O2        48.2890   23.8920    3.2820 O.2     3  DC3        -0.2443
     55  N3        46.2820   24.3410    4.2500 N.ar    3  DC3        -0.1739
     56  C4        45.0710   24.8860    4.1310 C.ar    3  DC3         0.1759
     57  N4        44.2470   24.8150    5.1790 N.pl3   3  DC3        -0.1070
     58  C5        44.6550   25.5240    2.9340 C.ar    3  DC3         0.0566
     59  C6        45.5170   25.5680    1.9120 C.ar    3  DC3         0.0849
     60  P         46.3130   22.6430   -2.2590 P.3     4  DA4         0.2141
     61  OP1       46.6550   22.1530   -3.6130 O.2     4  DA4        -0.5172
     62  OP2       44.8910   22.7740   -1.8700 O.3     4  DA4        -0.4373
     63  O5'       47.0480   21.6780   -1.2370 O.3     4  DA4        -0.3114
     64  C5'       48.4750   21.5530   -1.2740 C.3     4  DA4         0.1811
     65  C4'       48.9450   20.6660   -0.1630 C.3     4  DA4         0.1746
     66  O4'       48.8320   21.3470    1.1110 O.3     4  DA4        -0.3327
     67  C3'       48.1370   19.3950   -0.0020 C.3     4  DA4         0.1558
     68  O3'       48.6250   18.4000   -0.8550 O.3     4  DA4        -0.3138
     69  C2'       48.3620   19.0340    1.4550 C.3     4  DA4         0.0865
     70  C1'       48.4250   20.4230    2.1070 C.3     4  DA4         0.2094
     71  N9        47.1520   20.8390    2.7130 N.ar    4  DA4        -0.2714
     72  C8        46.0210   21.2730    2.0730 C.ar    4  DA4         0.1815
     73  N7        45.0060   21.4850    2.8770 N.ar    4  DA4        -0.2193
     74  C5        45.5040   21.1670    4.1310 C.ar    4  DA4         0.1518
     75  C6        44.9240   21.1820    5.4110 C.ar    4  DA4         0.1919
     76  N6        43.6610   21.5460    5.6460 N.pl3   4  DA4        -0.1054
     77  N1        45.6960   20.8060    6.4530 N.ar    4  DA4        -0.2040
     78  C2        46.9610   20.4420    6.2170 C.ar    4  DA4         0.2016
     79  N3        47.6180   20.3880    5.0600 N.ar    4  DA4        -0.2048
     80  C4        46.8240   20.7660    4.0450 C.ar    4  DA4         0.1691
     81  P         47.6430   17.7950   -1.5830 P.3     5  DG5         0.2141
     82  OP1       47.5430   17.3440   -2.9830 O.2     5  DG5        -0.5172
     83  OP2       46.4140   17.5910   -0.7880 O.3     5  DG5        -0.4373
     84  O5'       48.7940   16.9800   -0.8230 O.3     5  DG5        -0.3114
     85  C5'       48.2770   16.2820    0.2700 C.3     5  DG5         0.1811
     86  C4'       49.2600   15.8660    1.3440 C.3     5  DG5         0.1746
     87  O4'       49.5040   16.9480    2.2850 O.3     5  DG5        -0.3327
     88  C3'       48.6040   14.7490    2.1650 C.3     5  DG5         0.1558
     89  O3'       48.8780   13.5010    1.6100 O.3     5  DG5        -0.3138
     90  C2'       49.1380   14.9850    3.5570 C.3     5  DG5         0.0865
     91  C1'       49.1280   16.4990    3.5990 C.3     5  DG5         0.2094
     92  N9        47.8890   16.9950    4.1660 N.ar    5  DG5        -0.2713
     93  C8        46.7550   17.3910    3.4990 C.ar    5  DG5         0.1816
     94  N7        45.7460   17.6260    4.2920 N.ar    5  DG5        -0.2173
     95  C5        46.2390   17.3730    5.5590 C.ar    5  DG5         0.1748
     96  C6        45.6090   17.4530    6.8280 C.ar    5  DG5         0.3023
     97  O6        44.4440   17.7780    7.0850 O.2     5  DG5        -0.2633
     98  N1        46.4760   17.1080    7.8610 N.ar    5  DG5        -0.1709
     99  C2        47.7870   16.7320    7.6930 C.ar    5  DG5         0.2606
    100  N2        48.4650   16.4370    8.8110 N.pl3   5  DG5        -0.0859
    101  N3        48.3850   16.6520    6.5210 N.ar    5  DG5        -0.1918
    102  C4        47.5630   16.9820    5.5030 C.ar    5  DG5         0.1722
    103  P         47.7250   12.7340    1.4320 P.3     6  DC6         0.2141
    104  OP1       48.6760   12.2490    0.4100 O.2     6  DC6        -0.5172
    105  OP2       46.3630   13.1680    1.0470 O.3     6  DC6        -0.4373
    106  O5'       47.5810   11.6040    2.5570 O.3     6  DC6        -0.3114
    107  C5'       48.7340   10.9570    3.0850 C.3     6  DC6         0.1811
    108  C4'       48.7490   10.9550    4.6060 C.3     6  DC6         0.1746
    109  O4'       48.6600   12.3150    5.1210 O.3     6  DC6        -0.3327
    110  C3'       47.6090   10.2420    5.3290 C.3     6  DC6         0.1558
    111  O3'       47.7350    8.8110    5.2760 O.3     6  DC6        -0.3138
    112  C2'       47.9140   10.7940    6.7170 C.3     6  DC6         0.0866
    113  C1'       48.0210   12.2790    6.3870 C.3     6  DC6         0.2106
    114  N1        46.6220   12.8970    6.1330 N.ar    6  DC6        -0.2556
    115  C2        45.6250   13.0370    7.1050 C.ar    6  DC6         0.3531
    116  O2        45.7060   12.3640    8.1470 O.2     6  DC6        -0.2443
    117  N3        44.6030   13.8990    6.8830 N.ar    6  DC6        -0.1739
    118  C4        44.5560   14.6000    5.7500 C.ar    6  DC6         0.1759
    119  N4        43.5310   15.4360    5.5750 N.pl3   6  DC6        -0.1070
    120  C5        45.5570   14.4720    4.7520 C.ar    6  DC6         0.0566
    121  C6        46.5640   13.6210    4.9760 C.ar    6  DC6         0.0849
    122  P         47.0210    8.3510    4.3720 P.3     7  DA7         0.2141
    123  OP1       47.6490    7.0160    4.4760 O.3     7  DA7        -0.4373
    124  OP2       46.3420    8.8020    3.1360 O.2     7  DA7        -0.5172
    125  O5'       45.8890    8.4740    5.4810 O.3     7  DA7        -0.3114
    126  C5'       46.2090    8.0760    6.7990 C.3     7  DA7         0.1811
    127  C4'       45.0190    8.2820    7.6890 C.3     7  DA7         0.1746
    128  O4'       44.7950    9.7050    7.8360 O.3     7  DA7        -0.3327
    129  C3'       43.6870    7.7520    7.1750 C.3     7  DA7         0.1558
    130  O3'       43.5210    6.3630    7.3990 O.3     7  DA7        -0.3138
    131  C2'       42.7090    8.5980    7.9710 C.3     7  DA7         0.0865
    132  C1'       43.4150    9.9520    7.9690 C.3     7  DA7         0.2094
    133  N9        43.0300   10.8420    6.8650 N.ar    7  DA7        -0.2714
    134  C8        43.6670   10.9880    5.6600 C.ar    7  DA7         0.1815
    135  N7        43.1380   11.9100    4.8910 N.ar    7  DA7        -0.2193
    136  C5        42.0810   12.4010    5.6400 C.ar    7  DA7         0.1518
    137  C6        41.1230   13.3980    5.3850 C.ar    7  DA7         0.1919
    138  N6        41.0770   14.1070    4.2550 N.pl3   7  DA7        -0.1054
    139  N1        40.2030   13.6430    6.3430 N.ar    7  DA7        -0.2040
    140  C2        40.2510   12.9330    7.4760 C.ar    7  DA7         0.2016
    141  N3        41.1010   11.9730    7.8310 N.ar    7  DA7        -0.2048
    142  C4        42.0010   11.7520    6.8580 C.ar    7  DA7         0.1691
    143  P         42.4420    5.3910    6.5530 P.3     8  DC8         0.2141
    144  OP1       42.8030    4.1960    7.3550 O.3     8  DC8        -0.4373
    145  OP2       42.6520    5.3660    5.0850 O.2     8  DC8        -0.5172
    146  O5'       40.9210    5.7820    6.8460 O.3     8  DC8        -0.3114
    147  C5'       40.3520    5.5620    8.1480 C.3     8  DC8         0.1811
    148  C4'       39.0510    6.3220    8.3130 C.3     8  DC8         0.1746
    149  O4'       39.2750    7.7400    8.1250 O.3     8  DC8        -0.3327
    150  C3'       37.9120    6.0160    7.3550 C.3     8  DC8         0.1558
    151  O3'       37.1980    4.8610    7.7640 O.3     8  DC8        -0.3138
    152  C2'       37.0270    7.2440    7.5180 C.3     8  DC8         0.0866
    153  C1'       38.0710    8.3470    7.6910 C.3     8  DC8         0.2106
    154  N1        38.3450    9.1260    6.5020 N.ar    8  DC8        -0.2556
    155  C2        37.5030   10.1800    6.1300 C.ar    8  DC8         0.3531
    156  O2        36.5300   10.4520    6.8540 O.2     8  DC8        -0.2443
    157  N3        37.7710   10.8690    4.9950 N.ar    8  DC8        -0.1739
    158  C4        38.8270   10.5410    4.2490 C.ar    8  DC8         0.1759
    159  N4        39.0520   11.2490    3.1400 N.pl3   8  DC8        -0.1070
    160  C5        39.6920    9.4770    4.6090 C.ar    8  DC8         0.0566
    161  C6        39.4240    8.7980    5.7300 C.ar    8  DC8         0.0849
    162  P         36.4270    4.0250    6.6820 P.3     9  DA9         0.2141
    163  OP1       35.7880    2.8320    7.3070 O.3     9  DA9        -0.4373
    164  OP2       36.9350    3.9560    5.2860 O.2     9  DA9        -0.5172
    165  O5'       35.4070    5.2380    6.7820 O.3     9  DA9        -0.3114
    166  C5'       34.5400    5.3820    7.9170 C.3     9  DA9         0.1811
    167  C4'       33.3420    6.2020    7.5330 C.3     9  DA9         0.1746
    168  O4'       33.7130    7.5990    7.3930 O.3     9  DA9        -0.3327
    169  C3'       32.7720    5.8440    6.1740 C.3     9  DA9         0.1558
    170  O3'       31.9250    4.7220    6.2300 O.3     9  DA9        -0.3138
    171  C2'       32.0450    7.1180    5.7870 C.3     9  DA9         0.0865
    172  C1'       33.0100    8.1730    6.3070 C.3     9  DA9         0.2094
    173  N9        34.0610    8.5810    5.2680 N.ar    9  DA9        -0.2714
    174  C8        35.2960    8.0750    4.9560 C.ar    9  DA9         0.1815
    175  N7        35.8160    8.5850    3.8650 N.ar    9  DA9        -0.2193
    176  C5        34.8560    9.4850    3.4290 C.ar    9  DA9         0.1518
    177  C6        34.8030   10.3490    2.3220 C.ar    9  DA9         0.1919
    178  N6        35.7780   10.4490    1.4150 N.pl3   9  DA9        -0.1054
    179  N1        33.7010   11.1150    2.1770 N.ar    9  DA9        -0.2040
    180  C2        32.7250   11.0150    3.0870 C.ar    9  DA9         0.2016
    181  N3        32.6600   10.2420    4.1680 N.ar    9  DA9        -0.2048
    182  C4        33.7690    9.4930    4.2830 C.ar    9  DA9         0.1691
    183  P         31.6960    4.2020    5.0280 P.3    10  DG10        0.2141
    184  OP1       30.7120    3.1220    5.3240 O.3    10  DG10       -0.4373
    185  OP2       33.0310    3.8550    4.4550 O.2    10  DG10       -0.5172
    186  O5'       30.9460    5.2200    4.0650 O.3    10  DG10       -0.3114
    187  C5'       29.7360    5.7970    4.5210 C.3    10  DG10        0.1811
    188  C4'       28.9850    6.4250    3.3950 C.3    10  DG10        0.1746
    189  O4'       29.7010    7.5820    2.9270 O.3    10  DG10       -0.3327
    190  C3'       28.7230    5.5480    2.1920 C.3    10  DG10        0.1558
    191  O3'       27.4140    5.9280    1.8030 O.3    10  DG10       -0.3138
    192  C2'       29.8210    5.9730    1.2250 C.3    10  DG10        0.0865
    193  C1'       29.9540    7.4530    1.5510 C.3    10  DG10        0.2094
    194  N9        31.3040    7.7940    1.3850 N.ar   10  DG10       -0.2713
    195  C8        32.2380    6.8240    1.6580 C.ar   10  DG10        0.1816
    196  N7        33.2790    6.8760    0.8720 N.ar   10  DG10       -0.2173
    197  C5        33.0210    7.9420    0.0310 C.ar   10  DG10        0.1748
    198  C6        33.7850    8.4840   -1.0340 C.ar   10  DG10        0.3023
    199  O6        34.8870    8.1090   -1.4550 O.2    10  DG10       -0.2633
    200  N1        33.1510    9.5710   -1.6300 N.ar   10  DG10       -0.1709
    201  C2        31.9310   10.0740   -1.2470 C.ar   10  DG10        0.2606
    202  N2        31.4820   11.1280   -1.9410 N.pl3  10  DG10       -0.0859
    203  N3        31.2080    9.5800   -0.2610 N.ar   10  DG10       -0.1918
    204  C4        31.8040    8.5240    0.3320 C.ar   10  DG10        0.1722
    205  P         26.7520    5.0790    0.5450 P.3    11  DA11        0.2141
    206  OP1       25.3290    4.6850    0.4610 O.2    11  DA11       -0.5172
    207  OP2       27.8010    4.0480    0.7240 O.3    11  DA11       -0.4373
    208  O5'       27.1050    5.9450   -0.7530 O.3    11  DA11       -0.3114
    209  C5'       26.3800    7.1330   -1.0740 C.3    11  DA11        0.1811
    210  C4'       26.8020    7.6900   -2.4260 C.3    11  DA11        0.1746
    211  O4'       28.0360    8.4420   -2.2830 O.3    11  DA11       -0.3327
    212  C3'       27.0840    6.6510   -3.5100 C.3    11  DA11        0.1558
    213  O3'       25.8720    6.2860   -4.1850 O.3    11  DA11       -0.3138
    214  C2'       28.0900    7.3880   -4.3900 C.3    11  DA11        0.0865
    215  C1'       28.9270    8.1120   -3.3360 C.3    11  DA11        0.2094
    216  N9        30.0670    7.2970   -2.8050 N.ar   11  DA11       -0.2714
    217  C8        30.1390    6.5250   -1.6750 C.ar   11  DA11        0.1815
    218  N7        31.2620    5.8550   -1.5630 N.ar   11  DA11       -0.2193
    219  C5        31.9750    6.2100   -2.6970 C.ar   11  DA11        0.1518
    220  C6        33.2460    5.8400   -3.1700 C.ar   11  DA11        0.1919
    221  N6        34.0560    4.9950   -2.5280 N.pl3  11  DA11       -0.1054
    222  N1        33.6600    6.3750   -4.3380 N.ar   11  DA11       -0.2040
    223  C2        32.8480    7.2220   -4.9800 C.ar   11  DA11        0.2016
    224  N3        31.6340    7.6470   -4.6370 N.ar   11  DA11       -0.2048
    225  C4        31.2510    7.0960   -3.4720 C.ar   11  DA11        0.1691
    226  P         25.6860    4.8370   -4.9570 P.3    12  DG12        0.2141
    227  OP1       24.4200    4.5880   -5.6750 O.2    12  DG12       -0.5172
    228  OP2       26.3180    3.7430   -4.1870 O.3    12  DG12       -0.4373
    229  O5'       26.7970    5.2530   -6.0250 O.3    12  DG12       -0.3114
    230  C5'       26.5550    6.2960   -6.9540 C.3    12  DG12        0.1811
    231  C4'       27.6240    6.2920   -8.0150 C.3    12  DG12        0.1746
    232  O4'       28.8910    6.6390   -7.4090 O.3    12  DG12       -0.3327
    233  C3'       27.8880    4.9440   -8.6680 C.3    12  DG12        0.1558
    234  O3'       26.9970    4.6500   -9.7250 O.3    12  DG12       -0.3138
    235  C2'       29.3280    5.0510   -9.1270 C.3    12  DG12        0.0865
    236  C1'       29.9290    5.8900   -8.0030 C.3    12  DG12        0.2094
    237  N9        30.5450    5.0200   -6.9660 N.ar   12  DG12       -0.2713
    238  C8        29.9970    4.5910   -5.7810 C.ar   12  DG12        0.1816
    239  N7        30.7810    3.7900   -5.1120 N.ar   12  DG12       -0.2173
    240  C5        31.9130    3.6830   -5.8970 C.ar   12  DG12        0.1748
    241  C6        33.1100    2.9490   -5.6950 C.ar   12  DG12        0.3023
    242  O6        33.4110    2.2210   -4.7410 O.2    12  DG12       -0.2633
    243  N1        34.0090    3.1190   -6.7450 N.ar   12  DG12       -0.1709
    244  C2        33.7820    3.9000   -7.8530 C.ar   12  DG12        0.2606
    245  N2        34.7680    3.9410   -8.7590 N.pl3  12  DG12       -0.0859
    246  N3        32.6750    4.5880   -8.0540 N.ar   12  DG12       -0.1918
    247  C4        31.7870    4.4370   -7.0480 C.ar   12  DG12        0.1722
    248  P         26.4170    3.2670   -9.6890 P.3    13  DG13        0.2141
    249  OP1       25.3520    3.1610  -10.7120 O.2    13  DG13       -0.5172
    250  OP2       26.0690    3.1080   -8.2580 O.3    13  DG13       -0.4373
    251  O5'       27.6010    2.2380  -10.0280 O.3    13  DG13       -0.3114
    252  C5'       28.2950    2.2900  -11.2840 C.3    13  DG13        0.1811
    253  C4'       29.5210    1.3890  -11.2990 C.3    13  DG13        0.1746
    254  O4'       30.5390    1.9140  -10.4090 O.3    13  DG13       -0.3327
    255  C3'       29.2930   -0.0300  -10.7990 C.3    13  DG13        0.1558
    256  O3'       28.7790   -0.8660  -11.8190 O.3    13  DG13       -0.3138
    257  C2'       30.6930   -0.4460  -10.3570 C.3    13  DG13        0.0865
    258  C1'       31.1890    0.8530   -9.7290 C.3    13  DG13        0.2094
    259  N9        30.8680    0.9080   -8.2740 N.ar   13  DG13       -0.2713
    260  C8        29.8780    1.6010   -7.6210 C.ar   13  DG13        0.1816
    261  N7        29.8780    1.4060   -6.3300 N.ar   13  DG13       -0.2173
    262  C5        30.9300    0.5360   -6.1150 C.ar   13  DG13        0.1748
    263  C6        31.4220   -0.0390   -4.9150 C.ar   13  DG13        0.3023
    264  O6        31.0030    0.1200   -3.7620 O.2    13  DG13       -0.2633
    265  N1        32.5120   -0.8740   -5.1460 N.ar   13  DG13       -0.1709
    266  C2        33.0610   -1.1230   -6.3810 C.ar   13  DG13        0.2606
    267  N2        34.1100   -1.9560   -6.4040 N.pl3  13  DG13       -0.0859
    268  N3        32.6150   -0.5970   -7.5040 N.ar   13  DG13       -0.1918
    269  C4        31.5560    0.2160   -7.3050 C.ar   13  DG13        0.1722
    270  P         27.9280   -2.2880  -11.3810 P.3    14  DT14        0.2141
    271  OP1       27.4650   -3.0970  -12.5290 O.2    14  DT14       -0.5172
    272  OP2       26.9610   -1.9270  -10.3210 O.3    14  DT14       -0.4373
    273  O5'       29.1370   -3.0660  -10.6700 O.3    14  DT14       -0.3115
    274  C5'       29.9780   -4.0180  -11.3390 C.3    14  DT14        0.1785
    275  C4'       30.7320   -4.8920  -10.3320 C.3    14  DT14        0.1473
    276  O4'       31.3570   -4.0290   -9.3640 O.3    14  DT14       -0.3353
    277  C3'       29.8080   -5.7410   -9.4730 C.3    14  DT14        0.0368
    278  O3'       29.1580   -6.8770  -10.0960 O.3    14  DT14       -0.1229
    279  C2'       30.6130   -5.9590   -8.2020 C.3    14  DT14        0.0566
    280  C1'       31.3190   -4.6140   -8.0390 C.3    14  DT14        0.2081
    281  N1        30.1740   -4.0060   -7.0830 N.ar   14  DT14       -0.2559
    282  C2        30.4100   -4.2390   -5.7410 C.ar   14  DT14        0.3545
    283  O2        31.3320   -4.9250   -5.3380 O.2    14  DT14       -0.2443
    284  N3        29.5220   -3.6380   -4.8820 N.ar   14  DT14       -0.1533
    285  C4        28.4460   -2.8450   -5.2220 C.ar   14  DT14        0.2804
    286  O4        27.7370   -2.3740   -4.3360 O.2    14  DT14       -0.2654
    287  C5        28.2670   -2.6510   -6.6340 C.ar   14  DT14        0.0534
    288  C6        29.1160   -3.2240   -7.4910 C.ar   14  DT14        0.0824
    289  C7        27.1230   -1.8030   -7.1060 C.3    14  DT14        0.0377
    290  P         29.7220   -8.1950  -10.1190 P.3    15  DC15        0.4174
    291  OP1       30.0690   -9.2310  -11.1370 O.2    15  DC15       -0.2667
    292  OP2       28.3430   -7.6050  -10.1190 O.3    15  DC15       -0.0277
    293  O5'       30.0620   -8.7720   -8.6760 O.3    15  DC15       -0.2176
    294  C5'       31.4180   -8.9910   -8.2910 C.3    15  DC15        0.2140
    295  C4'       31.4900   -9.5720   -6.8920 C.3    15  DC15        0.1776
    296  O4'       31.6290   -8.5130   -5.9120 O.3    15  DC15       -0.3326
    297  C3'       30.3060  -10.3950   -6.4080 C.3    15  DC15        0.1559
    298  O3'       30.3050  -11.7370   -6.8680 O.3    15  DC15       -0.3138
    299  C2'       30.4670  -10.3160   -4.9010 C.3    15  DC15        0.0866
    300  C1'       30.9690   -8.8870   -4.7240 C.3    15  DC15        0.2106
    301  N1        29.7770   -7.9870   -4.5400 N.ar   15  DC15       -0.2556
    302  C2        29.2580   -7.7830   -3.2560 C.ar   15  DC15        0.3531
    303  O2        29.8190   -8.3290   -2.2910 O.2    15  DC15       -0.2443
    304  N3        28.1630   -7.0000   -3.1040 N.ar   15  DC15       -0.1739
    305  C4        27.5930   -6.4360   -4.1700 C.ar   15  DC15        0.1759
    306  N4        26.5160   -5.6730   -3.9710 N.pl3  15  DC15       -0.1070
    307  C5        28.1030   -6.6300   -5.4790 C.ar   15  DC15        0.0566
    308  C6        29.1850   -7.4040   -5.6250 C.ar   15  DC15        0.0849
    309  P         28.8280  -12.6980   -6.6840 P.3    16  DA16        0.2141
    310  OP1       28.8140  -13.8280   -7.6650 O.2    16  DA16       -0.5172
    311  OP2       28.3560  -11.3320   -7.0980 O.3    16  DA16       -0.4373
    312  O5'       27.9950  -13.1670   -5.4060 O.3    16  DA16       -0.3114
    313  C5'       28.3730  -14.3350   -4.7060 C.3    16  DA16        0.1811
    314  C4'       28.3660  -14.0600   -3.2370 C.3    16  DA16        0.1746
    315  O4'       28.5020  -12.6340   -3.0230 O.3    16  DA16       -0.3327
    316  C3'       27.0790  -14.4250   -2.5280 C.3    16  DA16        0.1558
    317  O3'       27.1270  -15.7800   -2.1360 O.3    16  DA16       -0.3138
    318  C2'       27.0930  -13.5060   -1.3170 C.3    16  DA16        0.0865
    319  C1'       27.7160  -12.2410   -1.9080 C.3    16  DA16        0.2094
    320  N9        26.6270  -11.3010   -2.4480 N.ar   16  DA16       -0.2714
    321  C8        26.5000  -10.9260   -3.7600 C.ar   16  DA16        0.1815
    322  N7        25.6860   -9.9120   -3.9440 N.ar   16  DA16       -0.2193
    323  C5        25.2500   -9.6020   -2.6660 C.ar   16  DA16        0.1518
    324  C6        24.3690   -8.6200   -2.1800 C.ar   16  DA16        0.1919
    325  N6        23.7470   -7.7330   -2.9600 N.pl3  16  DA16       -0.1054
    326  N1        24.1480   -8.5800   -0.8480 N.ar   16  DA16       -0.2040
    327  C2        24.7720   -9.4690   -0.0670 C.ar   16  DA16        0.2016
    328  N3        25.6210  -10.4360   -0.4060 N.ar   16  DA16       -0.2048
    329  C4        25.8190  -10.4490   -1.7350 C.ar   16  DA16        0.1691
    330  P         25.7880  -16.5950   -1.8480 P.3    17  DG17        0.2141
    331  OP1       25.5040  -17.9440   -2.3960 O.3    17  DG17       -0.4373
    332  OP2       25.2050  -15.3920   -2.4840 O.2    17  DG17       -0.5172
    333  O5'       25.2950  -16.5250   -0.3240 O.3    17  DG17       -0.3114
    334  C5'       25.3720  -17.6880    0.4900 C.3    17  DG17        0.1811
    335  C4'       25.1960  -17.3990    1.9650 C.3    17  DG17        0.1746
    336  O4'       25.8180  -16.1320    2.3120 O.3    17  DG17       -0.3327
    337  C3'       23.7750  -17.2240    2.4800 C.3    17  DG17        0.1558
    338  O3'       23.0370  -18.4290    2.6070 O.3    17  DG17       -0.3138
    339  C2'       24.0280  -16.5150    3.8020 C.3    17  DG17        0.0865
    340  C1'       25.1170  -15.5320    3.3800 C.3    17  DG17        0.2094
    341  N9        24.5380  -14.2640    2.9160 N.ar   17  DG17       -0.2713
    342  C8        24.5020  -13.8310    1.6120 C.ar   17  DG17        0.1816
    343  N7        24.0520  -12.6120    1.4870 N.ar   17  DG17       -0.2173
    344  C5        23.7760  -12.2130    2.7810 C.ar   17  DG17        0.1748
    345  C6        23.2620  -10.9890    3.2800 C.ar   17  DG17        0.3023
    346  O6        22.9400   -9.9780    2.6440 O.2    17  DG17       -0.2633
    347  N1        23.1330  -11.0050    4.6660 N.ar   17  DG17       -0.1709
    348  C2        23.4590  -12.0690    5.4720 C.ar   17  DG17        0.2606
    349  N2        23.2670  -11.8950    6.7870 N.pl3  17  DG17       -0.0859
    350  N3        23.9370  -13.2130    5.0230 N.ar   17  DG17       -0.1918
    351  C4        24.0700  -13.2210    3.6800 C.ar   17  DG17        0.1722
    352  P         21.6380  -18.5480    1.8380 P.3    18  DA18        0.2141
    353  OP1       21.4240  -19.8770    1.2100 O.3    18  DA18       -0.4373
    354  OP2       21.0630  -17.3320    1.2040 O.2    18  DA18       -0.5172
    355  O5'       21.0870  -18.6000    3.3280 O.3    18  DA18       -0.3114
    356  C5'       19.7210  -18.3370    3.5770 C.3    18  DA18        0.1811
    357  C4'       19.5810  -17.2170    4.5650 C.3    18  DA18        0.1746
    358  O4'       20.6310  -16.2410    4.3870 O.3    18  DA18       -0.3327
    359  C3'       18.2940  -16.4410    4.3980 C.3    18  DA18        0.1558
    360  O3'       17.2500  -17.1030    5.0940 O.3    18  DA18       -0.3138
    361  C2'       18.6250  -15.0670    4.9730 C.3    18  DA18        0.0865
    362  C1'       20.1340  -14.9570    4.7160 C.3    18  DA18        0.2094
    363  N9        20.7010  -14.3020    3.7210 N.ar   18  DA18       -0.2714
    364  C8        20.9820  -14.7840    2.4700 C.ar   18  DA18        0.1815
    365  N7        21.1330  -13.8470    1.5640 N.ar   18  DA18       -0.2193
    366  C5        20.9370  -12.6700    2.2690 C.ar   18  DA18        0.1518
    367  C6        20.9630  -11.3190    1.8800 C.ar   18  DA18        0.1919
    368  N6        21.2100  -10.9130    0.6320 N.pl3  18  DA18       -0.1054
    369  N1        20.7250  -10.3890    2.8290 N.ar   18  DA18       -0.2040
    370  C2        20.4790  -10.7960    4.0790 C.ar   18  DA18        0.2016
    371  N3        20.4280  -12.0340    4.5660 N.ar   18  DA18       -0.2048
    372  C4        20.6680  -12.9340    3.5980 C.ar   18  DA18        0.1691
    373  P         15.5840  -16.8480    4.7180 P.3    19  DT19        0.2141
    374  OP1       14.3210  -17.0190    5.4830 O.3    19  DT19       -0.4373
    375  OP2       15.5630  -16.9490    3.2300 O.2    19  DT19       -0.5172
    376  O5'       16.2450  -15.4410    5.0760 O.3    19  DT19       -0.3114
    377  C5'       16.1460  -14.8830    6.3860 C.3    19  DT19        0.1811
    378  C4'       15.9580  -13.3820    6.3010 C.3    19  DT19        0.1746
    379  O4'       17.1670  -12.7410    5.8240 O.3    19  DT19       -0.3327
    380  C3'       14.8830  -12.9210    5.3310 C.3    19  DT19        0.1558
    381  O3'       13.6220  -12.9330    5.9770 O.3    19  DT19       -0.3138
    382  C2'       15.2980  -11.4930    5.0030 C.3    19  DT19        0.0866
    383  C1'       16.8250  -11.5640    5.1190 C.3    19  DT19        0.2106
    384  N1        17.5320  -11.5920    3.8630 N.ar   19  DT19       -0.2559
    385  C2        17.8390  -10.3350    3.3770 C.ar   19  DT19        0.3545
    386  O2        17.8300   -9.3340    4.0710 O.2    19  DT19       -0.2443
    387  N3        18.1580  -10.2900    2.0410 N.ar   19  DT19       -0.1533
    388  C4        18.2000  -11.3520    1.1620 C.ar   19  DT19        0.2804
    389  O4        18.5050  -11.1550   -0.0110 O.2    19  DT19       -0.2654
    390  C5        17.8680  -12.6230    1.7420 C.ar   19  DT19        0.0534
    391  C6        17.5540  -12.6950    3.0380 C.ar   19  DT19        0.0824
    392  C7        17.8850  -13.8410    0.8660 C.3    19  DT19        0.0377
    393  P         12.3260  -12.5240    5.1520 P.3    20  DG20        0.2141
    394  OP1       11.2730  -12.9880    6.0850 O.3    20  DG20       -0.4373
    395  OP2       12.5900  -13.2910    3.9120 O.2    20  DG20       -0.5172
    396  O5'       12.0320  -10.9930    4.7680 O.3    20  DG20       -0.3114
    397  C5'       11.2180  -10.1800    5.6070 C.3    20  DG20        0.1811
    398  C4'       11.7160   -8.7470    5.6450 C.3    20  DG20        0.1746
    399  O4'       13.1320   -8.6990    5.3250 O.3    20  DG20       -0.3327
    400  C3'       11.0950   -7.8140    4.6150 C.3    20  DG20        0.1558
    401  O3'        9.7980   -7.3720    5.0060 O.3    20  DG20       -0.3138
    402  C2'       12.1350   -6.7010    4.6050 C.3    20  DG20        0.0865
    403  C1'       13.3910   -7.5590    4.5200 C.3    20  DG20        0.2094
    404  N9        13.7530   -8.0070    3.2330 N.ar   20  DG20       -0.2713
    405  C8        13.7800   -9.3540    2.9630 C.ar   20  DG20        0.1816
    406  N7        14.2850   -9.6340    1.7930 N.ar   20  DG20       -0.2173
    407  C5        14.6130   -8.4030    1.2570 C.ar   20  DG20        0.1748
    408  C6        15.1950   -8.0650    0.0080 C.ar   20  DG20        0.3023
    409  O6        15.5480   -8.8250   -0.9030 O.2    20  DG20       -0.2633
    410  N1        15.3570   -6.6900   -0.1370 N.ar   20  DG20       -0.1709
    411  C2        15.0010   -5.7550    0.8060 C.ar   20  DG20        0.2606
    412  N2        15.2360   -4.4750    0.4870 N.pl3  20  DG20       -0.0859
    413  N3        14.4590   -6.0540    1.9700 N.ar   20  DG20       -0.1918
    414  C4        14.2920   -7.3830    2.1320 C.ar   20  DG20        0.1722
    415  P          8.6430   -7.2820    3.8440 P.3    21  DG21        0.2141
    416  OP1        7.4510   -7.4260    4.7110 O.3    21  DG21       -0.4373
    417  OP2        8.5980   -7.7300    2.4330 O.2    21  DG21       -0.5172
    418  O5'        9.0920   -5.7490    3.7630 O.3    21  DG21       -0.3114
    419  C5'        8.5650   -4.9790    2.7010 C.3    21  DG21        0.1811
    420  C4'        9.5830   -4.0550    2.0910 C.3    21  DG21        0.1746
    421  O4'       10.8890   -4.6820    2.0190 O.3    21  DG21       -0.3327
    422  C3'        9.3140   -3.7030    0.6410 C.3    21  DG21        0.1558
    423  O3'        8.2290   -2.8190    0.4520 O.3    21  DG21       -0.3138
    424  C2'       10.6720   -3.1920    0.1920 C.3    21  DG21        0.0865
    425  C1'       11.5410   -4.2720    0.8300 C.3    21  DG21        0.2094
    426  N9        11.6760   -5.4730   -0.1650 N.ar   21  DG21       -0.2713
    427  C8        11.4800   -6.7550    0.2900 C.ar   21  DG21        0.1816
    428  N7        11.9240   -7.6670   -0.5310 N.ar   21  DG21       -0.2173
    429  C5        12.4460   -6.9490   -1.5910 C.ar   21  DG21        0.1748
    430  C6        13.0670   -7.3900   -2.7880 C.ar   21  DG21        0.3023
    431  O6        13.2840   -8.5510   -3.1550 O.2    21  DG21       -0.2633
    432  N1        13.4510   -6.3250   -3.5980 N.ar   21  DG21       -0.1709
    433  C2        13.2610   -4.9980   -3.2920 C.ar   21  DG21        0.2606
    434  N2        13.7000   -4.1140   -4.1980 N.pl3  21  DG21       -0.0859
    435  N3        12.6850   -4.5740   -2.1850 N.ar   21  DG21       -0.1918
    436  C4        12.3030   -5.5900   -1.3840 C.ar   21  DG21        0.1722
    437  P          7.1770   -3.4550   -0.0250 P.3    22  DT22        0.2141
    438  OP1        5.9240   -2.7660    0.4070 O.3    22  DT22       -0.4373
    439  OP2        7.1080   -5.0030   -0.0730 O.2    22  DT22       -0.5172
    440  O5'        7.6530   -2.9170   -1.4570 O.3    22  DT22       -0.3114
    441  C5'        7.6440   -1.5230   -1.7860 C.3    22  DT22        0.1811
    442  C4'        8.0600   -1.3350   -3.2480 C.3    22  DT22        0.1746
    443  O4'        9.3620   -1.9220   -3.4920 O.3    22  DT22       -0.3327
    444  C3'        7.1390   -1.9880   -4.2650 C.3    22  DT22        0.1558
    445  O3'        6.0510   -1.1290   -4.5410 O.3    22  DT22       -0.3138
    446  C2'        8.0630   -2.1590   -5.4720 C.3    22  DT22        0.0866
    447  C1'        9.3430   -2.6040   -4.7690 C.3    22  DT22        0.2106
    448  N1         9.5000   -4.0870   -4.6010 N.ar   22  DT22       -0.2559
    449  C2         9.8870   -4.7740   -5.7360 C.ar   22  DT22        0.3545
    450  O2        10.1110   -4.2250   -6.8010 O.2    22  DT22       -0.2443
    451  N3        10.0020   -6.1340   -5.5810 N.ar   22  DT22       -0.1533
    452  C4         9.7740   -6.8600   -4.4310 C.ar   22  DT22        0.2804
    453  O4         9.9200   -8.0800   -4.4460 O.2    22  DT22       -0.2654
    454  C5         9.3750   -6.0760   -3.2960 C.ar   22  DT22        0.0534
    455  C6         9.2550   -4.7510   -3.4190 C.ar   22  DT22        0.0824
    456  C7         9.1030   -6.7750   -1.9970 C.3    22  DT22        0.0377
    457  P          4.7270   -1.7580   -4.6380 P.3    23  DG23        0.2141
    458  OP1        3.8510   -0.5630   -4.7610 O.2    23  DG23       -0.5172
    459  OP2        4.4570   -2.7580   -3.5700 O.3    23  DG23       -0.4373
    460  O5'        4.7640   -2.5240   -6.0410 O.3    23  DG23       -0.3114
    461  C5'        4.7890   -1.7990   -7.2940 C.3    23  DG23        0.1811
    462  C4'        4.8490   -2.7560   -8.4710 C.3    23  DG23        0.1746
    463  O4'        6.0500   -3.5640   -8.3700 O.3    23  DG23       -0.3327
    464  C3'        3.7160   -3.7660   -8.6070 C.3    23  DG23        0.1558
    465  O3'        2.5870   -3.2280   -9.2950 O.3    23  DG23       -0.3138
    466  C2'        4.3620   -4.8970   -9.4010 C.3    23  DG23        0.0865
    467  C1'        5.7980   -4.8650   -8.8770 C.3    23  DG23        0.2094
    468  N9         6.0890   -5.8290   -7.8210 N.ar   23  DG23       -0.2713
    469  C8         6.1260   -5.5640   -6.4740 C.ar   23  DG23        0.1816
    470  N7         6.3730   -6.6200   -5.7470 N.ar   23  DG23       -0.2173
    471  C5         6.5090   -7.6440   -6.6660 C.ar   23  DG23        0.1748
    472  C6         6.7810   -9.0240   -6.4770 C.ar   23  DG23        0.3023
    473  O6         6.9630   -9.6300   -5.4140 O.2    23  DG23       -0.2633
    474  N1         6.8340   -9.7140   -7.6840 N.ar   23  DG23       -0.1709
    475  C2         6.6480   -9.1450   -8.9220 C.ar   23  DG23        0.2606
    476  N2         6.7390   -9.9730   -9.9720 N.pl3  23  DG23       -0.0859
    477  N3         6.3940   -7.8660   -9.1130 N.ar   23  DG23       -0.1918
    478  C4         6.3370   -7.1760   -7.9540 C.ar   23  DG23        0.1722
    479  P          1.0860   -3.9980   -9.2290 P.3    24  DC24        0.2141
    480  OP1       -0.0960   -3.1210   -9.4320 O.2    24  DC24       -0.5172
    481  OP2        1.0140   -5.1050   -8.2490 O.3    24  DC24       -0.4373
    482  O5'        1.5480   -4.6320  -10.6080 O.3    24  DC24       -0.3114
    483  C5'        0.7290   -5.5790  -11.2180 C.3    24  DC24        0.1811
    484  C4'        1.5190   -6.7770  -11.6540 C.3    24  DC24        0.1746
    485  O4'        2.6730   -7.0790  -10.8120 O.3    24  DC24       -0.3327
    486  C3'        0.6800   -8.0230  -11.5300 C.3    24  DC24        0.1558
    487  O3'       -0.3750   -8.0560  -12.4580 O.3    24  DC24       -0.3138
    488  C2'        1.7210   -9.1290  -11.5740 C.3    24  DC24        0.0866
    489  C1'        2.8550   -8.5000  -10.7560 C.3    24  DC24        0.2106
    490  N1         2.7510   -8.9220   -9.3490 N.ar   24  DC24       -0.2556
    491  C2         3.0750  -10.2290   -8.9690 C.ar   24  DC24        0.3531
    492  O2         3.2970  -11.0720   -9.8560 O.2    24  DC24       -0.2443
    493  N3         3.1360  -10.5370   -7.6520 N.ar   24  DC24       -0.1739
    494  C4         2.8890   -9.6000   -6.7360 C.ar   24  DC24        0.1759
    495  N4         2.9610   -9.9500   -5.4490 N.pl3  24  DC24       -0.1070
    496  C5         2.5590   -8.2700   -7.1000 C.ar   24  DC24        0.0566
    497  C6         2.5000   -7.9700   -8.4020 C.ar   24  DC24        0.0849
    498  P         -1.8220   -8.4250  -11.9480 P.3    25  DT25        0.2141
    499  OP1       -2.6680   -8.2350  -13.1510 O.2    25  DT25       -0.5172
    500  OP2       -2.3340   -8.0050  -10.6180 O.3    25  DT25       -0.4373
    501  O5'       -1.4300   -9.9670  -11.8790 O.3    25  DT25       -0.3114
    502  C5'       -0.9370  -10.6250  -13.0330 C.3    25  DT25        0.1811
    503  C4'       -0.7260  -12.0900  -12.7610 C.3    25  DT25        0.1746
    504  O4'        0.3190  -12.2550  -11.7600 O.3    25  DT25       -0.3327
    505  C3'       -1.9120  -12.7990  -12.1330 C.3    25  DT25        0.1558
    506  O3'       -2.9200  -13.1640  -13.0540 O.3    25  DT25       -0.3138
    507  C2'       -1.2620  -14.0070  -11.4740 C.3    25  DT25        0.0866
    508  C1'        0.0320  -13.3930  -10.9490 C.3    25  DT25        0.2106
    509  N1        -0.0960  -13.0000   -9.5100 N.ar   25  DT25       -0.2559
    510  C2         0.2020  -13.9580   -8.5600 C.ar   25  DT25        0.3545
    511  O2         0.6030  -15.0730   -8.8440 O.2    25  DT25       -0.2443
    512  N3         0.0120  -13.5640   -7.2580 N.ar   25  DT25       -0.1533
    513  C4        -0.4360  -12.3350   -6.8200 C.ar   25  DT25        0.2804
    514  O4        -0.5540  -12.1290   -5.6150 O.2    25  DT25       -0.2654
    515  C5        -0.7250  -11.3950   -7.8660 C.ar   25  DT25        0.0534
    516  C6        -0.5490  -11.7520   -9.1410 C.ar   25  DT25        0.0824
    517  C7        -1.2190  -10.0290   -7.4910 C.3    25  DT25        0.0377
    518  P         -4.4750  -13.4670  -12.4890 P.3    26  DA26        0.2141
    519  OP1       -5.3820  -12.7370  -13.4040 O.2    26  DA26       -0.5172
    520  OP2       -3.8090  -12.7520  -11.3760 O.3    26  DA26       -0.4373
    521  O5'       -5.2560  -14.7270  -11.9260 O.3    26  DA26       -0.3114
    522  C5'       -5.5110  -15.8210  -12.7840 C.3    26  DA26        0.1811
    523  C4'       -5.0400  -17.0900  -12.1510 C.3    26  DA26        0.1746
    524  O4'       -3.6110  -17.0370  -11.9050 O.3    26  DA26       -0.3327
    525  C3'       -5.6410  -17.3850  -10.7940 C.3    26  DA26        0.1558
    526  O3'       -6.9400  -17.9450  -10.9010 O.3    26  DA26       -0.3138
    527  C2'       -4.6340  -18.3630  -10.2110 C.3    26  DA26        0.0865
    528  C1'       -3.3090  -17.8060  -10.7440 C.3    26  DA26        0.2094
    529  N9        -2.7300  -16.9500   -9.7470 N.ar   26  DA26       -0.2714
    530  C8        -2.5370  -15.6030   -9.9080 C.ar   26  DA26        0.1815
    531  N7        -1.9220  -15.0330   -8.8980 N.ar   26  DA26       -0.2193
    532  C5        -1.6980  -16.0770   -8.0140 C.ar   26  DA26        0.1518
    533  C6        -1.0840  -16.1310   -6.7510 C.ar   26  DA26        0.1919
    534  N6        -0.5620  -15.0670   -6.1360 N.pl3  26  DA26       -0.1054
    535  N1        -1.0240  -17.3300   -6.1340 N.ar   26  DA26       -0.2040
    536  C2        -1.5460  -18.3960   -6.7510 C.ar   26  DA26        0.2016
    537  N3        -2.1470  -18.4710   -7.9360 N.ar   26  DA26       -0.2048
    538  C4        -2.1910  -17.2630   -8.5230 C.ar   26  DA26        0.1691
    539  P         -8.2130  -17.5260   -9.7950 P.3    27  DT27        0.2141
    540  OP1       -9.4590  -18.1630  -10.2750 O.2    27  DT27       -0.5172
    541  OP2       -8.1850  -16.0810   -9.4780 O.3    27  DT27       -0.4373
    542  O5'       -7.7290  -18.2540   -8.4480 O.3    27  DT27       -0.3114
    543  C5'       -7.7030  -19.6760   -8.4110 C.3    27  DT27        0.1811
    544  C4'       -6.9600  -20.2350   -7.2180 C.3    27  DT27        0.1746
    545  O4'       -5.6190  -19.6880   -7.1580 O.3    27  DT27       -0.3327
    546  C3'       -7.5670  -19.9640   -5.8480 C.3    27  DT27        0.1558
    547  O3'       -8.5320  -20.9440   -5.5080 O.3    27  DT27       -0.3138
    548  C2'       -6.3670  -19.9740   -4.9080 C.3    27  DT27        0.0866
    549  C1'       -5.2110  -19.5370   -5.8150 C.3    27  DT27        0.2106
    550  N1        -4.7850  -18.2180   -5.6400 N.ar   27  DT27       -0.2559
    551  C2        -3.9830  -17.9050   -4.5590 C.ar   27  DT27        0.3545
    552  O2        -3.4670  -18.7500   -3.8490 O.2    27  DT27       -0.2443
    553  N3        -3.8060  -16.5610   -4.3360 N.ar   27  DT27       -0.1533
    554  C4        -4.3390  -15.5210   -5.0700 C.ar   27  DT27        0.2804
    555  O4        -4.0880  -14.3630   -4.7470 O.2    27  DT27       -0.2654
    556  C5        -5.1610  -15.9270   -6.1750 C.ar   27  DT27        0.0534
    557  C6        -5.3500  -17.2280   -6.4140 C.ar   27  DT27        0.0824
    558  C7        -5.7870  -14.8690   -7.0340 C.3    27  DT27        0.0377
    559  P         -9.8400  -20.8490   -4.0720 P.3    28  DC28        0.2141
    560  OP1      -10.9660  -21.7800   -3.8550 O.3    28  DC28       -0.4373
    561  OP2      -10.0860  -19.4190   -4.3720 O.2    28  DC28       -0.5172
    562  O5'       -8.9110  -20.9330   -2.7900 O.3    28  DC28       -0.3114
    563  C5'       -8.8200  -22.1640   -2.1120 C.3    28  DC28        0.1811
    564  C4'       -7.7470  -22.0790   -1.0540 C.3    28  DC28        0.1746
    565  O4'       -6.5920  -21.4000   -1.6010 O.3    28  DC28       -0.3327
    566  C3'       -8.1070  -21.2240    0.1330 C.3    28  DC28        0.1558
    567  O3'       -8.9300  -21.9520    1.0320 O.3    28  DC28       -0.3138
    568  C2'       -6.7190  -20.9900    0.7010 C.3    28  DC28        0.0866
    569  C1'       -5.9410  -20.6830   -0.5710 C.3    28  DC28        0.2106
    570  N1        -5.8250  -19.2310   -0.9710 N.ar   28  DC28       -0.2556
    571  C2        -4.8110  -18.4750   -0.3710 C.ar   28  DC28        0.3531
    572  O2        -4.0550  -19.0300    0.4450 O.2    28  DC28       -0.2443
    573  N3        -4.6850  -17.1660   -0.6950 N.ar   28  DC28       -0.1739
    574  C4        -5.5210  -16.6140   -1.5750 C.ar   28  DC28        0.1759
    575  N4        -5.3580  -15.3200   -1.8640 N.pl3  28  DC28       -0.1070
    576  C5        -6.5550  -17.3620   -2.1940 C.ar   28  DC28        0.0566
    577  C6        -6.6760  -18.6550   -1.8710 C.ar   28  DC28        0.0849
    578  P         -9.7720  -21.1990    2.1330 P.3    29  DA29        0.2141
    579  OP1      -11.2110  -21.5660    2.0700 O.3    29  DA29       -0.4373
    580  OP2       -9.3210  -19.9060    1.5400 O.2    29  DA29       -0.5172
    581  O5'       -9.3260  -21.2400    3.6670 O.3    29  DA29       -0.3114
    582  C5'       -9.6090  -22.3840    4.4760 C.3    29  DA29        0.1811
    583  C4'       -8.6340  -22.4950    5.6340 C.3    29  DA29        0.1746
    584  O4'       -7.2770  -22.6490    5.1440 O.3    29  DA29       -0.3327
    585  C3'       -8.5700  -21.3320    6.6130 C.3    29  DA29        0.1558
    586  O3'       -9.5870  -21.4390    7.6030 O.3    29  DA29       -0.3138
    587  C2'       -7.1790  -21.4890    7.2270 C.3    29  DA29        0.0865
    588  C1'       -6.3700  -22.0450    6.0510 C.3    29  DA29        0.2094
    589  N9        -5.5520  -21.1590    5.2810 N.ar   29  DA29       -0.2714
    590  C8        -5.7020  -20.8090    3.9640 C.ar   29  DA29        0.1815
    591  N7        -4.8760  -19.8690    3.5700 N.ar   29  DA29       -0.2193
    592  C5        -4.1340  -19.5810    4.7040 C.ar   29  DA29        0.1518
    593  C6        -3.0900  -18.6710    4.9460 C.ar   29  DA29        0.1919
    594  N6        -2.5950  -17.8500    4.0170 N.pl3  29  DA29       -0.1054
    595  N1        -2.5670  -18.6340    6.1900 N.ar   29  DA29       -0.2040
    596  C2        -3.0640  -19.4580    7.1200 C.ar   29  DA29        0.2016
    597  N3        -4.0410  -20.3550    7.0130 N.ar   29  DA29       -0.2048
    598  C4        -4.5400  -20.3670    5.7660 C.ar   29  DA29        0.1691
    599  P        -10.6660  -20.0610    7.9760 P.3    30  DT30        0.2141
    600  OP1      -11.7640  -20.5990    8.8080 O.3    30  DT30       -0.4373
    601  OP2      -10.9050  -18.9240    7.0610 O.2    30  DT30       -0.5172
    602  O5'       -9.4970  -19.5460    8.9360 O.3    30  DT30       -0.3114
    603  C5'       -9.1320  -20.2580   10.1110 C.3    30  DT30        0.1811
    604  C4'       -8.1010  -19.4880   10.8960 C.3    30  DT30        0.1746
    605  O4'       -6.8160  -19.5640   10.2290 O.3    30  DT30       -0.3327
    606  C3'       -8.3930  -18.0030   11.0310 C.3    30  DT30        0.1558
    607  O3'       -9.2240  -17.7460   12.1510 O.3    30  DT30       -0.3138
    608  C2'       -7.0120  -17.3540   11.1080 C.3    30  DT30        0.0866
    609  C1'       -6.1390  -18.3290   10.3090 C.3    30  DT30        0.2106
    610  N1        -5.8340  -17.8640    8.9310 N.ar   30  DT30       -0.2559
    611  C2        -4.8020  -16.9600    8.7670 C.ar   30  DT30        0.3545
    612  O2        -4.0960  -16.5830    9.6860 O.2    30  DT30       -0.2443
    613  N3        -4.6240  -16.5080    7.4810 N.ar   30  DT30       -0.1533
    614  C4        -5.3580  -16.8620    6.3690 C.ar   30  DT30        0.2804
    615  O4        -5.0780  -16.3710    5.2780 O.2    30  DT30       -0.2654
    616  C5        -6.4120  -17.8040    6.6210 C.ar   30  DT30        0.0534
    617  C6        -6.6070  -18.2600    7.8620 C.ar   30  DT30        0.0824
    618  C7        -7.2680  -18.2510    5.4740 C.3    30  DT30        0.0377
    619  P        -10.0950  -16.2890   12.2540 P.3    31  DG31        0.2141
    620  OP1      -11.0640  -16.0850   13.3680 O.3    31  DG31       -0.4373
    621  OP2      -10.4040  -15.7590   10.8960 O.2    31  DG31       -0.5172
    622  O5'       -8.6830  -15.6900   12.6540 O.3    31  DG31       -0.3114
    623  C5'       -8.3860  -14.3660   12.2980 C.3    31  DG31        0.1811
    624  C4'       -6.9170  -14.0850   12.4020 C.3    31  DG31        0.1746
    625  O4'       -6.1800  -14.8370   11.4050 O.3    31  DG31       -0.3327
    626  C3'       -6.7230  -12.6450   11.9980 C.3    31  DG31        0.1558
    627  O3'       -7.0160  -11.8000   13.0860 O.3    31  DG31       -0.3138
    628  C2'       -5.3320  -12.6170   11.3980 C.3    31  DG31        0.0865
    629  C1'       -5.3100  -13.9680   10.6890 C.3    31  DG31        0.2094
    630  N9        -5.6880  -13.8960    9.2990 N.ar   31  DG31       -0.2713
    631  C8        -6.8340  -14.3460    8.6890 C.ar   31  DG31        0.1816
    632  N7        -6.8810  -14.0690    7.4140 N.ar   31  DG31       -0.2173
    633  C5        -5.6980  -13.3990    7.1640 C.ar   31  DG31        0.1748
    634  C6        -5.1860  -12.8470    5.9620 C.ar   31  DG31        0.3023
    635  O6        -5.7030  -12.8480    4.8380 O.2    31  DG31       -0.2633
    636  N1        -3.9430  -12.2490    6.1520 N.ar   31  DG31       -0.1709
    637  C2        -3.2760  -12.1890    7.3520 C.ar   31  DG31        0.2606
    638  N2        -2.0870  -11.5720    7.3370 N.pl3  31  DG31       -0.0859
    639  N3        -3.7400  -12.6960    8.4770 N.ar   31  DG31       -0.1918
    640  C4        -4.9460  -13.2810    8.3170 C.ar   31  DG31        0.1722
    641  P         -8.0550  -10.6030   12.8920 P.3    32  DC32        0.2141
    642  OP1       -8.9820  -10.3390   14.0200 O.3    32  DC32       -0.4373
    643  OP2       -8.4340  -10.2590   11.5020 O.2    32  DC32       -0.5172
    644  O5'       -6.6590   -9.8620   13.1370 O.3    32  DC32       -0.3114
    645  C5'       -6.5590   -8.4950   12.7890 C.3    32  DC32        0.1811
    646  C4'       -5.2720   -8.1570   12.0840 C.3    32  DC32        0.1746
    647  O4'       -4.9520   -9.1280   11.0520 O.3    32  DC32       -0.3327
    648  C3'       -5.3510   -6.8670   11.3040 C.3    32  DC32        0.1558
    649  O3'       -5.3220   -5.7300   12.1390 O.3    32  DC32       -0.3138
    650  C2'       -4.2060   -7.0050   10.3120 C.3    32  DC32        0.0866
    651  C1'       -4.3490   -8.4810    9.9440 C.3    32  DC32        0.2106
    652  N1        -5.1630   -8.7410    8.6910 N.ar   32  DC32       -0.2556
    653  C2        -4.7620   -8.2140    7.4570 C.ar   32  DC32        0.3531
    654  O2        -3.7290   -7.5260    7.4090 O.2    32  DC32       -0.2443
    655  N3        -5.5110   -8.4680    6.3570 N.ar   32  DC32       -0.1739
    656  C4        -6.6130   -9.2110    6.4570 C.ar   32  DC32        0.1759
    657  N4        -7.3190   -9.4350    5.3460 N.pl3  32  DC32       -0.1070
    658  C5        -7.0360   -9.7540    7.6980 C.ar   32  DC32        0.0566
    659  C6        -6.2940   -9.5010    8.7810 C.ar   32  DC32        0.0849
    660  P         -6.4530   -5.0960   11.9160 P.3    33  DG33        0.2141
    661  OP1       -6.2230   -4.3190   13.1570 O.3    33  DG33       -0.4373
    662  OP2       -7.8440   -5.3540   11.4710 O.2    33  DG33       -0.5172
    663  O5'       -5.6390   -4.4410   10.6910 O.3    33  DG33       -0.3114
    664  C5'       -4.2800   -4.0660   10.8940 C.3    33  DG33        0.1811
    665  C4'       -3.5580   -3.7240    9.6020 C.3    33  DG33        0.1746
    666  O4'       -3.4370   -4.9050    8.7670 O.3    33  DG33       -0.3327
    667  C3'       -4.2450   -2.7080    8.6980 C.3    33  DG33        0.1558
    668  O3'       -4.0000   -1.3790    9.1150 O.3    33  DG33       -0.3138
    669  C2'       -3.5280   -2.9960    7.3930 C.3    33  DG33        0.0865
    670  C1'       -3.5660   -4.5170    7.4070 C.3    33  DG33        0.2094
    671  N9        -4.7920   -5.0140    6.8510 N.ar   33  DG33       -0.2713
    672  C8        -5.7570   -5.6450    7.5970 C.ar   33  DG33        0.1816
    673  N7        -6.7710   -6.0570    6.8850 N.ar   33  DG33       -0.2173
    674  C5        -6.4590   -5.6780    5.5920 C.ar   33  DG33        0.1748
    675  C6        -7.1770   -5.8490    4.3810 C.ar   33  DG33        0.3023
    676  O6        -8.2760   -6.3940    4.2130 O.2    33  DG33       -0.2633
    677  N1        -6.4980   -5.3110    3.2920 N.ar   33  DG33       -0.1709
    678  C2        -5.2760   -4.6850    3.3610 C.ar   33  DG33        0.2606
    679  N2        -4.7780   -4.2310    2.2030 N.pl3  33  DG33       -0.0859
    680  N3        -4.5970   -4.5170    4.4790 N.ar   33  DG33       -0.1918
    681  C4        -5.2390   -5.0320    5.5500 C.ar   33  DG33        0.1722
    682  P         -5.2050   -0.3170    9.0450 P.3    34  DC34        0.2141
    683  OP1       -4.7510    0.6350   10.0850 O.3    34  DC34       -0.4373
    684  OP2       -6.5230   -0.9780    9.1680 O.2    34  DC34       -0.5172
    685  O5'       -5.1110    0.4150    7.6250 O.3    34  DC34       -0.3114
    686  C5'       -3.8820    0.9930    7.2180 C.3    34  DC34        0.1811
    687  C4'       -3.6010    0.6820    5.7600 C.3    34  DC34        0.1746
    688  O4'       -3.7030   -0.7450    5.4960 O.3    34  DC34       -0.3327
    689  C3'       -4.6080    1.2230    4.7650 C.3    34  DC34        0.1558
    690  O3'       -4.5510    2.6410    4.6560 O.3    34  DC34       -0.3138
    691  C2'       -4.1490    0.4560    3.5220 C.3    34  DC34        0.0866
    692  C1'       -4.0820   -0.9370    4.1370 C.3    34  DC34        0.2106
    693  N1        -5.4280   -1.5030    4.1670 N.ar   34  DC34       -0.2556
    694  C2        -6.2610   -1.8410    3.0950 C.ar   34  DC34        0.3531
    695  O2        -5.9450   -1.4700    1.9520 O.2    34  DC34       -0.2443
    696  N3        -7.3850   -2.5590    3.3330 N.ar   34  DC34       -0.1739
    697  C4        -7.6860   -2.9350    4.5770 C.ar   34  DC34        0.1759
    698  N4        -8.8030   -3.6410    4.7630 N.pl3  34  DC34       -0.1070
    699  C5        -6.8550   -2.6030    5.6770 C.ar   34  DC34        0.0566
    700  C6        -5.7460   -1.8940    5.4380 C.ar   34  DC34        0.0849
    701  P         -6.0700    3.5930    4.6410 P.3    35  DT35        0.2141
    702  OP1       -5.6890    5.0290    4.6450 O.2    35  DT35       -0.5172
    703  OP2       -7.1170    3.0870    5.5760 O.3    35  DT35       -0.4373
    704  O5'       -6.4520    3.2360    3.1490 O.3    35  DT35       -0.3114
    705  C5'       -5.7240    3.8120    2.0980 C.3    35  DT35        0.1811
    706  C4'       -6.1380    3.1970    0.7920 C.3    35  DT35        0.1746
    707  O4'       -5.9570    1.7630    0.8910 O.3    35  DT35       -0.3327
    708  C3'       -7.6000    3.2990    0.3930 C.3    35  DT35        0.1558
    709  O3'       -7.9570    4.5710   -0.1400 O.3    35  DT35       -0.3138
    710  C2'       -7.6870    2.1990   -0.6570 C.3    35  DT35        0.0866
    711  C1'       -6.8470    1.1080   -0.0010 C.3    35  DT35        0.2106
    712  N1        -7.6770    0.2200    0.7450 N.ar   35  DT35       -0.2559
    713  C2        -8.3250   -0.8110    0.0900 C.ar   35  DT35        0.3545
    714  O2        -8.2430   -0.9880   -1.1120 O.2    35  DT35       -0.2443
    715  N3        -9.0760   -1.6310    0.8970 N.ar   35  DT35       -0.1533
    716  C4        -9.2410   -1.5260    2.2630 C.ar   35  DT35        0.2804
    717  O4        -9.9480   -2.3410    2.8510 O.2    35  DT35       -0.2654
    718  C5        -8.5380   -0.4300    2.8690 C.ar   35  DT35        0.0534
    719  C6        -7.8000    0.3820    2.1080 C.ar   35  DT35        0.0824
    720  C7        -8.6550   -0.2310    4.3510 C.3    35  DT35        0.0377
    721  P         -9.5600    4.9490   -0.3150 P.3    36  DC36        0.2141
    722  OP1       -9.6740    6.3730   -0.7010 O.2    36  DC36       -0.5172
    723  OP2      -10.5360    4.3690    0.6360 O.3    36  DC36       -0.4373
    724  O5'       -9.5750    4.0540   -1.6370 O.3    36  DC36       -0.3114
    725  C5'      -10.6140    4.2320   -2.5860 C.3    36  DC36        0.1811
    726  C4'      -10.9680    2.9280   -3.2790 C.3    36  DC36        0.1746
    727  O4'      -10.2440    1.8090   -2.6880 O.3    36  DC36       -0.3327
    728  C3'      -12.4180    2.5040   -3.1610 C.3    36  DC36        0.1558
    729  O3'      -13.2720    3.2520   -4.0280 O.3    36  DC36       -0.3138
    730  C2'      -12.3000    1.0350   -3.5370 C.3    36  DC36        0.0866
    731  C1'      -11.0820    0.6530   -2.7060 C.3    36  DC36        0.2106
    732  N1       -11.4430    0.2460   -1.2900 N.ar   36  DC36       -0.2556
    733  C2       -12.0140   -1.0020   -1.0180 C.ar   36  DC36        0.3531
    734  O2       -12.4480   -1.6800   -1.9640 O.2    36  DC36       -0.2443
    735  N3       -12.0790   -1.4310    0.2650 N.ar   36  DC36       -0.1739
    736  C4       -11.6020   -0.6680    1.2490 C.ar   36  DC36        0.1759
    737  N4       -11.6880   -1.1340    2.4980 N.pl3  36  DC36       -0.1070
    738  C5       -11.0190    0.5990    0.9940 C.ar   36  DC36        0.0566
    739  C6       -10.9570    1.0200   -0.2740 C.ar   36  DC36        0.0849
    740  P        -14.6090    3.7960   -3.4360 P.3    37  DA37        0.2141
    741  OP1      -14.5290    4.9440   -4.3780 O.2    37  DA37       -0.5172
    742  OP2      -15.2970    4.0090   -2.1640 O.3    37  DA37       -0.4373
    743  O5'      -15.3360    2.6060   -4.2180 O.3    37  DA37       -0.3114
    744  C5'      -14.8630    2.2820   -5.5350 C.3    37  DA37        0.1811
    745  C4'      -14.9700    0.8020   -5.7940 C.3    37  DA37        0.1746
    746  O4'      -14.1340    0.0790   -4.8520 O.3    37  DA37       -0.3327
    747  C3'      -16.3360    0.1870   -5.5820 C.3    37  DA37        0.1558
    748  O3'      -17.1440    0.3200   -6.7430 O.3    37  DA37       -0.3138
    749  C2'      -15.9790   -1.2930   -5.4170 C.3    37  DA37        0.0865
    750  C1'      -14.7220   -1.2080   -4.6040 C.3    37  DA37        0.2094
    751  N9       -14.8400   -1.3170   -3.2040 N.ar   37  DA37       -0.2714
    752  C8       -14.7850   -0.3040   -2.2820 C.ar   37  DA37        0.1815
    753  N7       -14.9110   -0.7100   -1.0410 N.ar   37  DA37       -0.2193
    754  C5       -15.0590   -2.0840   -1.1550 C.ar   37  DA37        0.1518
    755  C6       -15.2350   -3.0990   -0.1980 C.ar   37  DA37        0.1919
    756  N6       -15.2920   -2.8740    1.1160 N.pl3  37  DA37       -0.1054
    757  N1       -15.3510   -4.3680   -0.6450 N.ar   37  DA37       -0.2040
    758  C2       -15.2930   -4.5920   -1.9630 C.ar   37  DA37        0.2016
    759  N3       -15.1300   -3.7230   -2.9580 N.ar   37  DA37       -0.2048
    760  C4       -15.0190   -2.4720   -2.4810 C.ar   37  DA37        0.1691
    761  P        -18.8390    0.2550   -6.6990 P.3    38  DA38        0.2141
    762  OP1      -19.5170    0.8650   -7.8820 O.2    38  DA38       -0.5172
    763  OP2      -18.9250    0.9140   -5.3700 O.3    38  DA38       -0.4373
    764  O5'      -19.2830   -1.2630   -6.5150 O.3    38  DA38       -0.3114
    765  C5'      -19.2490   -2.1840   -7.5940 C.3    38  DA38        0.1811
    766  C4'      -19.9230   -3.4790   -7.1920 C.3    38  DA38        0.1746
    767  O4'      -19.1100   -4.1460   -6.1950 O.3    38  DA38       -0.3327
    768  C3'      -21.2840   -3.3310   -6.5410 C.3    38  DA38        0.1558
    769  O3'      -22.3310   -3.2130   -7.4950 O.3    38  DA38       -0.3138
    770  C2'      -21.3880   -4.5800   -5.6750 C.3    38  DA38        0.0865
    771  C1'      -19.9400   -4.7720   -5.2300 C.3    38  DA38        0.2094
    772  N9       -19.7000   -4.1880   -3.9120 N.ar   38  DA38       -0.2714
    773  C8       -18.9820   -3.0510   -3.6450 C.ar   38  DA38        0.1815
    774  N7       -18.8620   -2.7910   -2.3640 N.ar   38  DA38       -0.2193
    775  C5       -19.5480   -3.8260   -1.7490 C.ar   38  DA38        0.1518
    776  C6       -19.7900   -4.1290   -0.3980 C.ar   38  DA38        0.1919
    777  N6       -19.3470   -3.3840    0.6170 N.pl3  38  DA38       -0.1054
    778  N1       -20.5110   -5.2370   -0.1240 N.ar   38  DA38       -0.2040
    779  C2       -20.9540   -5.9840   -1.1420 C.ar   38  DA38        0.2016
    780  N3       -20.7900   -5.8030   -2.4500 N.ar   38  DA38       -0.2048
    781  C4       -20.0700   -4.6940   -2.6900 C.ar   38  DA38        0.1691
    782  P        -23.7610   -2.3130   -7.1170 P.3    39  DT39        0.2141
    783  OP1      -24.7120   -2.1920   -8.2500 O.2    39  DT39       -0.5172
    784  OP2      -23.2230   -1.0800   -6.4800 O.3    39  DT39       -0.4373
    785  O5'      -24.4230   -3.2180   -5.9860 O.3    39  DT39       -0.3114
    786  C5'      -24.8430   -4.5610   -6.2710 C.3    39  DT39        0.1811
    787  C4'      -25.4740   -5.1790   -5.0490 C.3    39  DT39        0.1746
    788  O4'      -24.4300   -5.4740   -4.0830 O.3    39  DT39       -0.3327
    789  C3'      -26.4170   -4.2320   -4.3260 C.3    39  DT39        0.1558
    790  O3'      -27.7370   -4.1950   -4.8560 O.3    39  DT39       -0.3138
    791  C2'      -26.3180   -4.6750   -2.8730 C.3    39  DT39        0.0866
    792  C1'      -24.8460   -5.0790   -2.7850 C.3    39  DT39        0.2106
    793  N1       -24.0490   -3.9850   -2.2840 N.ar   39  DT39       -0.2559
    794  C2       -23.9800   -3.8300   -0.9120 C.ar   39  DT39        0.3545
    795  O2       -24.5230   -4.5910   -0.1300 O.2    39  DT39       -0.2443
    796  N3       -23.2510   -2.7470   -0.4860 N.ar   39  DT39       -0.1533
    797  C4       -22.5980   -1.8240   -1.2750 C.ar   39  DT39        0.2804
    798  O4       -21.9810   -0.9030   -0.7450 O.2    39  DT39       -0.2654
    799  C5       -22.7170   -2.0520   -2.6880 C.ar   39  DT39        0.0534
    800  C6       -23.4200   -3.0980   -3.1300 C.ar   39  DT39        0.0824
    801  C7       -22.0420   -1.1010   -3.6310 C.3    39  DT39        0.0377
    802  P        -28.6610   -2.8410   -4.6290 P.3    40  DG40        0.2141
    803  OP1      -29.3560   -2.9420   -5.9460 O.2    40  DG40       -0.5172
    804  OP2      -27.8540   -1.6300   -4.3630 O.3    40  DG40       -0.4373
    805  O5'      -29.7320   -2.9210   -3.4360 O.3    40  DG40       -0.3114
    806  C5'      -30.0060   -4.1560   -2.8030 C.3    40  DG40        0.1811
    807  C4'      -29.6820   -4.1060   -1.3340 C.3    40  DG40        0.1746
    808  O4'      -28.2690   -3.9180   -1.1170 O.3    40  DG40       -0.3327
    809  C3'      -30.2590   -2.9300   -0.5940 C.3    40  DG40        0.1558
    810  O3'      -31.6860   -2.9550   -0.4960 O.3    40  DG40       -0.3138
    811  C2'      -29.5170   -3.0590    0.7270 C.3    40  DG40        0.0865
    812  C1'      -28.0990   -3.3760    0.2040 C.3    40  DG40        0.2094
    813  N9       -27.3880   -2.2200    0.2120 N.ar   40  DG40       -0.2713
    814  C8       -27.0330   -1.5700   -0.9450 C.ar   40  DG40        0.1816
    815  N7       -26.3580   -0.4740   -0.7350 N.ar   40  DG40       -0.2173
    816  C5       -26.2570   -0.3920    0.6420 C.ar   40  DG40        0.1748
    817  C6       -25.6360    0.5810    1.4660 C.ar   40  DG40        0.3023
    818  O6       -25.0280    1.6020    1.1210 O.2    40  DG40       -0.2633
    819  N1       -25.7700    0.2800    2.8190 N.ar   40  DG40       -0.1709
    820  C2       -26.4220   -0.8230    3.3160 C.ar   40  DG40        0.2606
    821  N2       -26.4450   -0.9440    4.6500 N.pl3  40  DG40       -0.0859
    822  N3       -27.0040   -1.7350    2.5630 N.ar   40  DG40       -0.1918
    823  C4       -26.8870   -1.4630    1.2460 C.ar   40  DG40        0.1722
    824  P        -32.4150   -1.5480   -0.5090 P.3    41  DG41        0.2141
    825  OP1      -33.7040   -2.2640   -0.6760 O.3    41  DG41       -0.4373
    826  OP2      -32.0000   -0.4950   -1.4680 O.2    41  DG41       -0.5172
    827  O5'      -32.4090   -0.8260    0.9200 O.3    41  DG41       -0.3114
    828  C5'      -32.9190   -1.4880    2.0640 C.3    41  DG41        0.1811
    829  C4'      -32.4450   -0.8290    3.3300 C.3    41  DG41        0.1746
    830  O4'      -31.0000   -0.7940    3.3470 O.3    41  DG41       -0.3327
    831  C3'      -32.8150    0.6280    3.5020 C.3    41  DG41        0.1558
    832  O3'      -34.1370    0.8140    3.9510 O.3    41  DG41       -0.3138
    833  C2'      -31.7770    1.1440    4.4840 C.3    41  DG41        0.0865
    834  C1'      -30.5600    0.3230    4.0860 C.3    41  DG41        0.2094
    835  N9       -29.7100    1.1850    3.3510 N.ar   41  DG41       -0.2713
    836  C8       -29.6410    1.1580    1.9790 C.ar   41  DG41        0.1816
    837  N7       -28.7440    1.9710    1.4920 N.ar   41  DG41       -0.2173
    838  C5       -28.1850    2.5710    2.6050 C.ar   41  DG41        0.1748
    839  C6       -27.1600    3.5470    2.7110 C.ar   41  DG41        0.3023
    840  O6       -26.5220    4.0900    1.8010 O.2    41  DG41       -0.2633
    841  N1       -26.8970    3.8830    4.0360 N.ar   41  DG41       -0.1709
    842  C2       -27.5410    3.3460    5.1250 C.ar   41  DG41        0.2606
    843  N2       -27.1480    3.7940    6.3250 N.pl3  41  DG41       -0.0859
    844  N3       -28.4950    2.4400    5.0420 N.ar   41  DG41       -0.1918
    845  C4       -28.7680    2.0980    3.7650 C.ar   41  DG41        0.1722
    846  P        -34.6740    2.1610    3.5040 P.3    42  DG42        0.2141
    847  OP1      -36.0590    2.1300    2.9800 O.3    42  DG42       -0.4373
    848  OP2      -33.6340    2.9030    2.7540 O.2    42  DG42       -0.5172
    849  O5'      -34.6410    2.7820    4.9760 O.3    42  DG42       -0.3114
    850  C5'      -34.6610    4.1750    5.2200 C.3    42  DG42        0.1811
    851  C4'      -33.6480    4.4980    6.2760 C.3    42  DG42        0.1746
    852  O4'      -32.3650    3.9760    5.8600 O.3    42  DG42       -0.3327
    853  C3'      -33.4270    5.9710    6.5570 C.3    42  DG42        0.1558
    854  O3'      -34.3180    6.4290    7.5550 O.3    42  DG42       -0.3138
    855  C2'      -31.9530    6.0410    6.9630 C.3    42  DG42        0.0865
    856  C1'      -31.3340    4.8750    6.1930 C.3    42  DG42        0.2094
    857  N9       -30.6040    5.2880    5.0710 N.ar   42  DG42       -0.2713
    858  C8       -30.8590    4.9320    3.7690 C.ar   42  DG42        0.1816
    859  N7       -30.0190    5.4560    2.9180 N.ar   42  DG42       -0.2173
    860  C5       -29.1570    6.2010    3.7010 C.ar   42  DG42        0.1748
    861  C6       -28.0390    6.9980    3.3420 C.ar   42  DG42        0.3023
    862  O6       -27.5770    7.2050    2.2130 O.2    42  DG42       -0.2633
    863  N1       -27.4410    7.5860    4.4530 N.ar   42  DG42       -0.1709
    864  C2       -27.8680    7.4260    5.7500 C.ar   42  DG42        0.2606
    865  N2       -27.1620    8.0730    6.6880 N.pl3  42  DG42       -0.0859
    866  N3       -28.9040    6.6900    6.0980 N.ar   42  DG42       -0.1918
    867  C4       -29.5010    6.1100    5.0360 C.ar   42  DG42        0.1722
    868  P        -35.1100    7.8910    7.4760 P.3    43  DA43        0.2141
    869  OP1      -36.0840    8.3820    8.4770 O.3    43  DA43       -0.4373
    870  OP2      -35.3290    8.1690    6.0340 O.2    43  DA43       -0.5172
    871  O5'      -33.6860    8.4490    7.8800 O.3    43  DA43       -0.3114
    872  C5'      -33.3260    8.5950    9.2460 C.3    43  DA43        0.1811
    873  C4'      -32.3390    9.7160    9.3680 C.3    43  DA43        0.1746
    874  O4'      -31.0930    9.3070    8.7480 O.3    43  DA43       -0.3327
    875  C3'      -32.8050   10.9180    8.5720 C.3    43  DA43        0.1558
    876  O3'      -33.6200   11.7680    9.3640 O.3    43  DA43       -0.3138
    877  C2'      -31.5110   11.5700    8.1030 C.3    43  DA43        0.0865
    878  C1'      -30.5700   10.3620    7.9670 C.3    43  DA43        0.2094
    879  N9       -30.3270    9.9430    6.6490 N.ar   43  DA43       -0.2714
    880  C8       -31.3160    9.5700    5.7770 C.ar   43  DA43        0.1815
    881  N7       -31.0620    9.8740    4.5260 N.ar   43  DA43       -0.2193
    882  C5       -29.8210   10.4900    4.5810 C.ar   43  DA43        0.1518
    883  C6       -28.9960   11.0450    3.5870 C.ar   43  DA43        0.1919
    884  N6       -29.3130   11.0670    2.2900 N.pl3  43  DA43       -0.1054
    885  N1       -27.8200   11.5820    3.9770 N.ar   43  DA43       -0.2040
    886  C2       -27.5030   11.5590    5.2760 C.ar   43  DA43        0.2016
    887  N3       -28.1940   11.0660    6.3020 N.ar   43  DA43       -0.2048
    888  C4       -29.3570   10.5410    5.8820 C.ar   43  DA43        0.1691
    889  P        -34.8600   12.5620    8.6790 P.3    44  DG44        0.2141
    890  OP1      -35.9250   12.9030    9.6490 O.3    44  DG44       -0.4373
    891  OP2      -35.1780   11.8880    7.3940 O.2    44  DG44       -0.5172
    892  O5'      -34.0490   13.8940    8.3180 O.3    44  DG44       -0.3114
    893  C5'      -33.3050   14.6100    9.2930 C.3    44  DG44        0.1811
    894  C4'      -32.4220   15.6250    8.5910 C.3    44  DG44        0.1746
    895  O4'      -31.3480   14.9600    7.8660 O.3    44  DG44       -0.3327
    896  C3'      -33.1240   16.4580    7.5240 C.3    44  DG44        0.1558
    897  O3'      -33.8910   17.4880    8.1430 O.3    44  DG44       -0.3138
    898  C2'      -31.9000   16.9750    6.7740 C.3    44  DG44        0.0865
    899  C1'      -31.0260   15.7090    6.7080 C.3    44  DG44        0.2094
    900  N9       -31.3050   14.8870    5.5710 N.ar   44  DG44       -0.2713
    901  C8       -31.9040   13.6510    5.5350 C.ar   44  DG44        0.1816
    902  N7       -31.9710   13.1450    4.3340 N.ar   44  DG44       -0.2173
    903  C5       -31.3810   14.0990    3.5260 C.ar   44  DG44        0.1748
    904  C6       -31.1630   14.1160    2.1240 C.ar   44  DG44        0.3023
    905  O6       -31.4640   13.2510    1.2920 O.2    44  DG44       -0.2633
    906  N1       -30.5290   15.2840    1.7100 N.ar   44  DG44       -0.1709
    907  C2       -30.1500   16.3090    2.5430 C.ar   44  DG44        0.2606
    908  N2       -29.5480   17.3540    1.9590 N.pl3  44  DG44       -0.0859
    909  N3       -30.3450   16.3080    3.8470 N.ar   44  DG44       -0.1918
    910  C4       -30.9610   15.1840    4.2720 C.ar   44  DG44        0.1722
    911  P        -34.6100   18.7710    7.1820 P.3    45  DA45        0.2141
    912  OP1      -34.9470   20.0990    7.7750 O.3    45  DA45       -0.4373
    913  OP2      -35.6970   17.7890    6.9100 O.2    45  DA45       -0.5172
    914  O5'      -33.8310   19.0270    5.8080 O.3    45  DA45       -0.3114
    915  C5'      -32.8060   20.0180    5.7370 C.3    45  DA45        0.1811
    916  C4'      -32.8930   20.7750    4.4460 C.3    45  DA45        0.1746
    917  O4'      -32.2830   19.9950    3.4030 O.3    45  DA45       -0.3327
    918  C3'      -34.3180   21.0350    4.0120 C.3    45  DA45        0.1558
    919  O3'      -34.7920   22.2530    4.5720 O.3    45  DA45       -0.3138
    920  C2'      -34.2200   21.0350    2.4910 C.3    45  DA45        0.0865
    921  C1'      -33.1190   19.9910    2.2710 C.3    45  DA45        0.2094
    922  N9       -33.4440   18.4070    2.1020 N.ar   45  DA45       -0.2714
    923  C8       -33.8310   17.4370    2.9890 C.ar   45  DA45        0.1815
    924  N7       -34.3770   16.3870    2.4210 N.ar   45  DA45       -0.2193
    925  C5       -34.3470   16.6890    1.0690 C.ar   45  DA45        0.1518
    926  C6       -34.7770   15.9820   -0.0680 C.ar   45  DA45        0.1919
    927  N6       -35.3440   14.7750   -0.0170 N.pl3  45  DA45       -0.1054
    928  N1       -34.6020   16.5660   -1.2720 N.ar   45  DA45       -0.2040
    929  C2       -34.0330   17.7760   -1.3230 C.ar   45  DA45        0.2016
    930  N3       -33.5870   18.5380   -0.3260 N.ar   45  DA45       -0.2048
    931  C4       -33.7770   17.9300    0.8570 C.ar   45  DA45        0.1691
    932  P        -36.4530   22.5010    4.9210 P.3    46  DC46        0.2141
    933  OP1      -36.6920   23.8300    5.5330 O.2    46  DC46       -0.5172
    934  OP2      -36.9690   21.2870    5.5920 O.3    46  DC46       -0.4373
    935  O5'      -37.0200   22.4990    3.4220 O.3    46  DC46       -0.3114
    936  C5'      -36.6930   23.5430    2.5080 C.3    46  DC46        0.1811
    937  C4'      -36.9870   23.1020    1.0880 C.3    46  DC46        0.1746
    938  O4'      -36.3000   21.8640    0.7690 O.3    46  DC46       -0.3327
    939  C3'      -38.4250   22.7120    0.7960 C.3    46  DC46        0.1558
    940  O3'      -39.2970   23.8120    0.7640 O.3    46  DC46       -0.3138
    941  C2'      -38.2340   22.0870   -0.5740 C.3    46  DC46        0.0866
    942  C1'      -37.0110   21.2220   -0.2790 C.3    46  DC46        0.2106
    943  N1       -37.4570   19.8750    0.1300 N.ar   46  DC46       -0.2556
    944  C2       -37.9290   18.9540   -0.8120 C.ar   46  DC46        0.3531
    945  O2       -38.0720   19.3240   -1.9900 O.2    46  DC46       -0.2443
    946  N3       -38.2170   17.6920   -0.4140 N.ar   46  DC46       -0.1739
    947  C4       -38.0490   17.3400    0.8610 C.ar   46  DC46        0.1759
    948  N4       -38.3460   16.0850    1.2070 N.pl3  46  DC46       -0.1070
    949  C5       -37.5720   18.2580    1.8310 C.ar   46  DC46        0.0566
    950  C6       -37.2890   19.5040    1.4340 C.ar   46  DC46        0.0849
    951  P        -40.7890   23.6900    1.5650 P.3    47  DT47        0.2141
    952  OP1      -41.2410   24.6180    2.6490 O.3    47  DT47       -0.4373
    953  OP2      -40.9640   22.2280    1.7470 O.2    47  DT47       -0.5172
    954  O5'      -41.5390   24.0760    0.2190 O.3    47  DT47       -0.3114
    955  C5'      -42.7560   23.4310   -0.1250 C.3    47  DT47        0.1811
    956  C4'      -42.5960   22.6710   -1.4060 C.3    47  DT47        0.1746
    957  O4'      -41.3860   21.8740   -1.3780 O.3    47  DT47       -0.3327
    958  C3'      -43.6920   21.6630   -1.6240 C.3    47  DT47        0.1558
    959  O3'      -44.8770   22.2850   -2.0550 O.3    47  DT47       -0.3138
    960  C2'      -43.0430   20.6630   -2.5610 C.3    47  DT47        0.0866
    961  C1'      -41.6260   20.6270   -2.0040 C.3    47  DT47        0.2105
    962  N1       -41.5780   19.5310   -0.9520 N.ar   47  DT47       -0.2591
    963  C2       -41.8800   18.1960   -1.1420 C.ar   47  DT47        0.3079
    964  O2       -42.4740   17.7820   -2.1220 O.3    47  DT47       -0.4109
    965  N3       -41.4620   17.3570   -0.1380 N.ar   47  DT47       -0.1567
    966  C4       -40.7870   17.7110    1.0120 C.ar   47  DT47        0.2803
    967  O4       -40.4760   16.8420    1.8230 O.2    47  DT47       -0.2654
    968  C5       -40.5110   19.1150    1.1370 C.ar   47  DT47        0.0534
    969  C6       -40.9070   19.9530    0.1750 C.ar   47  DT47        0.0823
    970  C7       -39.7810   19.6010    2.3540 C.3    47  DT47        0.0377
    971  P        -46.2040   22.2020   -1.1580 P.3    48  DT48        0.2141
    972  OP1      -47.2540   22.7300   -2.0590 O.2    48  DT48       -0.5172
    973  OP2      -46.3850   22.2810    0.3100 O.3    48  DT48       -0.4373
    974  O5'      -45.9790   20.6420   -1.4490 O.3    48  DT48       -0.3114
    975  C5'      -45.9820   20.1480   -2.7830 C.3    48  DT48        0.1812
    976  C4'      -45.3450   18.7830   -2.8950 C.3    48  DT48        0.1780
    977  O4'      -44.0980   18.7520   -2.1490 O.3    48  DT48       -0.3053
    978  C3'      -46.1310   17.6050   -2.3320 C.3    48  DT48        0.1597
    979  O3'      -47.1640   17.1420   -3.1860 O.3    48  DT48       -0.3137
    980  C2'      -45.0320   16.5760   -2.0940 C.3    48  DT48        0.1279
    981  C1'      -43.8940   17.4680   -1.5980 C.3    48  DT48        0.3191
    982  N1       -43.8990   17.6430   -0.1830 N.ar   48  DT48       -0.2265
    983  C2       -43.3520   16.6160    0.5620 C.ar   48  DT48        0.3570
    984  O2       -42.7000   15.7120    0.0700 O.2    48  DT48       -0.2442
    985  N3       -43.5980   16.6830    1.9130 N.ar   48  DT48       -0.1532
    986  C4       -44.3190   17.6530    2.5770 C.ar   48  DT48        0.2804
    987  O4       -44.4530   17.5790    3.7960 O.2    48  DT48       -0.2654
    988  C5       -44.8550   18.6840    1.7340 C.ar   48  DT48        0.0535
    989  C6       -44.6310   18.6430    0.4180 C.ar   48  DT48        0.0857
    990  C7       -45.6560   19.7850    2.3630 C.3    48  DT48        0.0377
    991  P        -48.5080   16.2160   -2.5580 P.3    49  DT49        0.2141
    992  OP1      -49.7890   16.3450   -3.3000 O.2    49  DT49       -0.5172
    993  OP2      -48.4890   16.4110   -1.0800 O.3    49  DT49       -0.4373
    994  O5'      -47.8980   14.7840   -2.8740 O.3    49  DT49       -0.3114
    995  C5'      -48.3040   13.6460   -2.1210 C.3    49  DT49        0.1811
    996  C4'      -47.3030   12.5340   -2.2820 C.3    49  DT49        0.1746
    997  O4'      -45.9680   13.0250   -1.9930 O.3    49  DT49       -0.3327
    998  C3'      -47.5390   11.4220   -1.2860 C.3    49  DT49        0.1558
    999  O3'      -48.5310   10.5230   -1.7450 O.3    49  DT49       -0.3138
   1000  C2'      -46.1490   10.8350   -1.0910 C.3    49  DT49        0.0866
   1001  C1'      -45.2870   12.1000   -1.1590 C.3    49  DT49        0.2106
   1002  N1       -45.4010   12.8550    0.5550 N.ar   49  DT49       -0.2559
   1003  C2       -44.5360   12.3420    1.5030 C.ar   49  DT49        0.3545
   1004  O2       -44.0370   11.2340    1.4160 O.2    49  DT49       -0.2443
   1005  N3       -44.2750   13.1750    2.5630 N.ar   49  DT49       -0.1533
   1006  C4       -44.7800   14.4420    2.7660 C.ar   49  DT49        0.2804
   1007  O4       -44.4520   15.0710    3.7690 O.2    49  DT49       -0.2654
   1008  C5       -45.6710   14.9040    1.7390 C.ar   49  DT49        0.0534
   1009  C6       -45.9430   14.1130    0.6970 C.ar   49  DT49        0.0824
   1010  C7       -46.2740   16.2710    1.8690 C.3    49  DT49        0.0377
   1011  P        -49.3540    9.8740   -0.7330 P.3    50  DA50        0.2141
   1012  OP1      -49.5370    8.4770   -1.1880 O.2    50  DA50       -0.5172
   1013  OP2      -50.2720   10.4600    0.2720 O.3    50  DA50       -0.4373
   1014  O5'      -47.8490    9.9870   -0.1860 O.3    50  DA50       -0.3114
   1015  C5'      -47.4680    9.2760    1.0100 C.3    50  DA50        0.1811
   1016  C4'      -46.5490    8.0920    0.7460 C.3    50  DA50        0.1746
   1017  O4'      -47.1430    6.8530    1.2380 O.3    50  DA50       -0.3327
   1018  C3'      -46.1950    7.8280   -0.7240 C.3    50  DA50        0.1558
   1019  O3'      -44.7550    7.7550   -0.9010 O.3    50  DA50       -0.3138
   1020  C2'      -46.9280    6.5100   -1.0080 C.3    50  DA50        0.0865
   1021  C1'      -46.6910    5.8450    0.3460 C.3    50  DA50        0.2094
   1022  N9       -47.5430    4.6360    1.3130 N.ar   50  DA50       -0.2714
   1023  C8       -47.0890    4.0180    2.4490 C.ar   50  DA50        0.1815
   1024  N7       -47.8050    2.9790    2.8090 N.ar   50  DA50       -0.2193
   1025  C5       -48.7990    2.9110    1.8450 C.ar   50  DA50        0.1518
   1026  C6       -49.8780    2.0290    1.6590 C.ar   50  DA50        0.1919
   1027  N6       -50.1430    1.0050    2.4720 N.pl3  50  DA50       -0.1054
   1028  N1       -50.6830    2.2400    0.5960 N.ar   50  DA50       -0.2040
   1029  C2       -50.4150    3.2660   -0.2190 C.ar   50  DA50        0.2016
   1030  N3       -49.4320    4.1610   -0.1490 N.ar   50  DA50       -0.2048
   1031  C4       -48.6510    3.9260    0.9180 C.ar   50  DA50        0.1691
   1032  P        -44.1000    7.7910   -2.0320 P.3    51  DG51        0.2141
   1033  OP1      -43.9220    6.6470   -2.9640 O.2    51  DG51       -0.5172
   1034  OP2      -43.0410    8.0930   -1.0330 O.3    51  DG51       -0.4373
   1035  O5'      -44.3240    9.1320   -2.8770 O.3    51  DG51       -0.3114
   1036  C5'      -45.1950    9.1760   -4.0180 C.3    51  DG51        0.1811
   1037  C4'      -45.0120   10.4800   -4.7850 C.3    51  DG51        0.1746
   1038  O4'      -45.2010   11.5900   -3.8640 O.3    51  DG51       -0.3327
   1039  C3'      -43.6390   10.7330   -5.4000 C.3    51  DG51        0.1558
   1040  O3'      -43.4620   10.1180   -6.6740 O.3    51  DG51       -0.3138
   1041  C2'      -43.5730   12.2560   -5.4700 C.3    51  DG51        0.0865
   1042  C1'      -44.3160   12.6490   -4.1950 C.3    51  DG51        0.2094
   1043  N9       -43.3440   12.7770   -3.1360 N.ar   51  DG51       -0.2713
   1044  C8       -43.1500   11.9020   -2.0940 C.ar   51  DG51        0.1816
   1045  N7       -42.2280   12.2950   -1.2570 N.ar   51  DG51       -0.2173
   1046  C5       -41.7870   13.4990   -1.7730 C.ar   51  DG51        0.1748
   1047  C6       -40.7940   14.3960   -1.3020 C.ar   51  DG51        0.3023
   1048  O6       -40.0840   14.2930   -0.2940 O.2    51  DG51       -0.2633
   1049  N1       -40.6600   15.5060   -2.1310 N.ar   51  DG51       -0.1709
   1050  C2       -41.3930   15.7250   -3.2730 C.ar   51  DG51        0.2606
   1051  N2       -41.1230   16.8550   -3.9410 N.pl3  51  DG51       -0.0859
   1052  N3       -42.3180   14.9010   -3.7230 N.ar   51  DG51       -0.1918
   1053  C4       -42.4650   13.8150   -2.9340 C.ar   51  DG51        0.1722
   1054  P        -42.1840    9.3960   -6.9280 P.3    52  DC52        0.2141
   1055  OP1      -41.9010    8.2580   -7.8460 O.2    52  DC52       -0.5172
   1056  OP2      -42.0000    9.2250   -5.4580 O.3    52  DC52       -0.4373
   1057  O5'      -41.2970   10.6430   -7.3720 O.3    52  DC52       -0.3114
   1058  C5'      -41.4750   11.2760   -8.6410 C.3    52  DC52        0.1811
   1059  C4'      -41.0220   12.7180   -8.5650 C.3    52  DC52        0.1746
   1060  O4'      -41.4920   13.2670   -7.3010 O.3    52  DC52       -0.3327
   1061  C3'      -39.5260   13.0090   -8.5010 C.3    52  DC52        0.1558
   1062  O3'      -38.8690   12.9750   -9.7640 O.3    52  DC52       -0.3138
   1063  C2'      -39.5300   14.4230   -7.9460 C.3    52  DC52        0.0866
   1064  C1'      -40.6190   14.3110   -6.8810 C.3    52  DC52        0.2106
   1065  N1       -40.1340   13.9360   -5.6030 N.ar   52  DC52       -0.2556
   1066  C2       -39.6270   14.9040   -4.7280 C.ar   52  DC52        0.3531
   1067  O2       -39.6200   16.0930   -5.0910 O.2    52  DC52       -0.2443
   1068  N3       -39.1580   14.5180   -3.5170 N.ar   52  DC52       -0.1739
   1069  C4       -39.1840   13.2310   -3.1710 C.ar   52  DC52        0.1759
   1070  N4       -38.7110   12.8980   -1.9680 N.pl3  52  DC52       -0.1070
   1071  C5       -39.6940   12.2350   -4.0430 C.ar   52  DC52        0.0566
   1072  C6       -40.1560   12.6200   -5.2380 C.ar   52  DC52        0.0849
   1073  P        -37.2810   12.8480   -9.8400 P.3    53  DT53        0.2141
   1074  OP1      -36.6820   12.3220  -11.0940 O.2    53  DT53       -0.5172
   1075  OP2      -37.4670   11.9400   -8.6800 O.3    53  DT53       -0.4373
   1076  O5'      -36.4360   14.1050   -9.3470 O.3    53  DT53       -0.3114
   1077  C5'      -36.4380   15.3200  -10.1140 C.3    53  DT53        0.1811
   1078  C4'      -35.9470   16.4830   -9.2840 C.3    53  DT53        0.1746
   1079  O4'      -36.8410   16.7180   -8.1630 O.3    53  DT53       -0.3327
   1080  C3'      -34.5910   16.3320   -8.6220 C.3    53  DT53        0.1558
   1081  O3'      -33.5240   16.5060   -9.5380 O.3    53  DT53       -0.3138
   1082  C2'      -34.6630   17.4300   -7.5710 C.3    53  DT53        0.0866
   1083  C1'      -36.0980   17.2490   -7.0730 C.3    53  DT53        0.2106
   1084  N1       -36.1300   16.2470   -5.9810 N.ar   53  DT53       -0.2559
   1085  C2       -35.8460   16.6510   -4.6900 C.ar   53  DT53        0.3545
   1086  O2       -35.5130   17.7890   -4.4080 O.2    53  DT53       -0.2443
   1087  N3       -35.9670   15.6710   -3.7350 N.ar   53  DT53       -0.1533
   1088  C4       -36.3330   14.3570   -3.9360 C.ar   53  DT53        0.2804
   1089  O4       -36.3980   13.5920   -2.9770 O.2    53  DT53       -0.2654
   1090  C5       -36.6100   14.0150   -5.3030 C.ar   53  DT53        0.0534
   1091  C6       -36.5010   14.9490   -6.2520 C.ar   53  DT53        0.0824
   1092  C7       -37.0170   12.6080   -5.6250 C.3    53  DT53        0.0377
   1093  P        -32.4260   15.2710   -9.7400 P.3    54  DG54        0.2141
   1094  OP1      -31.9420   15.4080  -11.1210 O.2    54  DG54       -0.5172
   1095  OP2      -32.9200   13.9080   -9.4170 O.3    54  DG54       -0.4373
   1096  O5'      -31.3890   15.7180   -8.6220 O.3    54  DG54       -0.3114
   1097  C5'      -30.8350   17.0300   -8.6770 C.3    54  DG54        0.1811
   1098  C4'      -30.4220   17.4800   -7.3040 C.3    54  DG54        0.1746
   1099  O4'      -31.5910   17.5440   -6.4440 O.3    54  DG54       -0.3327
   1100  C3'      -29.4580   16.5840   -6.5140 C.3    54  DG54        0.1558
   1101  O3'      -28.1240   16.7830   -6.9200 O.3    54  DG54       -0.3138
   1102  C2'      -29.6370   17.2380   -5.1340 C.3    54  DG54        0.0865
   1103  C1'      -31.1590   17.4200   -5.0940 C.3    54  DG54        0.2094
   1104  N9       -31.9190   16.2810   -4.5040 N.ar   54  DG54       -0.2713
   1105  C8       -32.6680   15.3720   -5.2100 C.ar   54  DG54        0.1816
   1106  N7       -33.2250   14.4650   -4.4550 N.ar   54  DG54       -0.2173
   1107  C5       -32.8240   14.7930   -3.1730 C.ar   54  DG54        0.1748
   1108  C6       -33.1090   14.1730   -1.9290 C.ar   54  DG54        0.3023
   1109  O6       -33.8020   13.1710   -1.7140 O.2    54  DG54       -0.2633
   1110  N1       -32.4960   14.8310   -0.8670 N.ar   54  DG54       -0.1709
   1111  C2       -31.7070   15.9500   -0.9870 C.ar   54  DG54        0.2606
   1112  N2       -31.2040   16.4440    0.1520 N.pl3  54  DG54       -0.0859
   1113  N3       -31.4320   16.5370   -2.1360 N.ar   54  DG54       -0.1918
   1114  C4       -32.0160   15.9140   -3.1820 C.ar   54  DG54        0.1722
   1115  P        -26.9000   15.7670   -6.7580 P.3    55  DC55        0.2141
   1116  OP1      -25.7640   16.1960   -7.6070 O.2    55  DC55       -0.5172
   1117  OP2      -27.3320   14.3400   -6.7890 O.3    55  DC55       -0.4373
   1118  O5'      -26.6240   16.2200   -5.2520 O.3    55  DC55       -0.3114
   1119  C5'      -26.1210   17.5430   -4.9720 C.3    55  DC55        0.1811
   1120  C4'      -26.1110   17.8290   -3.4800 C.3    55  DC55        0.1746
   1121  O4'      -27.4720   17.8210   -2.9800 O.3    55  DC55       -0.3327
   1122  C3'      -25.3670   16.8740   -2.5530 C.3    55  DC55        0.1558
   1123  O3'      -23.9580   17.0830   -2.4740 O.3    55  DC55       -0.3138
   1124  C2'      -26.0340   17.1550   -1.2170 C.3    55  DC55        0.0866
   1125  C1'      -27.4890   17.3510   -1.6440 C.3    55  DC55        0.2106
   1126  N1       -28.2580   16.0790   -1.6030 N.ar   55  DC55       -0.2556
   1127  C2       -28.7200   15.5990   -0.3730 C.ar   55  DC55        0.3531
   1128  O2       -28.4340   16.2270    0.6610 O.2    55  DC55       -0.2443
   1129  N3       -29.4630   14.4660   -0.3440 N.ar   55  DC55       -0.1739
   1130  C4       -29.7440   13.8240   -1.4780 C.ar   55  DC55        0.1759
   1131  N4       -30.4790   12.7120   -1.4000 N.pl3  55  DC55       -0.1070
   1132  C5       -29.2850   14.2940   -2.7350 C.ar   55  DC55        0.0566
   1133  C6       -28.5520   15.4130   -2.7590 C.ar   55  DC55        0.0849
   1134  P        -22.9040   15.7550   -2.0960 P.3    56  DC56        0.2141
   1135  OP1      -21.4340   15.9490   -2.1690 O.3    56  DC56       -0.4373
   1136  OP2      -23.5240   14.5980   -2.7870 O.2    56  DC56       -0.5172
   1137  O5'      -23.3260   15.7220   -0.5640 O.3    56  DC56       -0.3114
   1138  C5'      -22.8840   16.7460    0.3440 C.3    56  DC56        0.1811
   1139  C4'      -22.9830   16.2540    1.7650 C.3    56  DC56        0.1746
   1140  O4'      -24.3770   16.0300    2.0960 O.3    56  DC56       -0.3327
   1141  C3'      -22.3100   14.9140    2.0200 C.3    56  DC56        0.1558
   1142  O3'      -20.9300   15.0840    2.2990 O.3    56  DC56       -0.3138
   1143  C2'      -23.0760   14.3970    3.2260 C.3    56  DC56        0.0866
   1144  C1'      -24.4950   14.8640    2.8950 C.3    56  DC56        0.2106
   1145  N1       -25.1890   13.7320    2.1740 N.ar   56  DC56       -0.2556
   1146  C2       -25.8420   12.7690    2.9510 C.ar   56  DC56        0.3531
   1147  O2       -25.7550   12.8400    4.1890 O.2    56  DC56       -0.2443
   1148  N3       -26.5460   11.7900    2.3340 N.ar   56  DC56       -0.1739
   1149  C4       -26.6110   11.7530    1.0020 C.ar   56  DC56        0.1759
   1150  N4       -27.3160   10.7690    0.4380 N.pl3  56  DC56       -0.1070
   1151  C5       -25.9560   12.7200    0.1970 C.ar   56  DC56        0.0566
   1152  C6       -25.2620   13.6850    0.8100 C.ar   56  DC56        0.0849
   1153  P        -19.8290   13.8450    2.0490 P.3    57  DC57        0.2141
   1154  OP1      -18.6550   14.6380    2.4770 O.3    57  DC57       -0.4373
   1155  OP2      -19.7400   12.9450    0.8770 O.2    57  DC57       -0.5172
   1156  O5'      -20.3000   12.8870    3.2460 O.3    57  DC57       -0.3114
   1157  C5'      -19.9910   13.2170    4.5930 C.3    57  DC57        0.1811
   1158  C4'      -20.8770   12.4960    5.5830 C.3    57  DC57        0.1746
   1159  O4'      -22.2610   12.5630    5.1470 O.3    57  DC57       -0.3327
   1160  C3'      -20.6360   11.0040    5.7690 C.3    57  DC57        0.1558
   1161  O3'      -19.5330   10.6970    6.6020 O.3    57  DC57       -0.3138
   1162  C2'      -21.9650   10.5350    6.3430 C.3    57  DC57        0.0866
   1163  C1'      -22.9400   11.3920    5.5440 C.3    57  DC57        0.2106
   1164  N1       -23.4570   10.6790    4.4090 N.ar   57  DC57       -0.2556
   1165  C2       -24.4130    9.6680    4.5660 C.ar   57  DC57        0.3531
   1166  O2       -24.7860    9.3710    5.7140 O.2    57  DC57       -0.2443
   1167  N3       -24.9000    9.0440    3.4670 N.ar   57  DC57       -0.1739
   1168  C4       -24.4690    9.3950    2.2550 C.ar   57  DC57        0.1759
   1169  N4       -24.9770    8.7530    1.2010 N.pl3  57  DC57       -0.1070
   1170  C5       -23.5010   10.4170    2.0740 C.ar   57  DC57        0.0566
   1171  C6       -23.0230   11.0300    3.1630 C.ar   57  DC57        0.0849
   1172  P        -19.0240    9.5450    6.4140 P.3    58  DC58        0.2141
   1173  OP1      -17.7890    9.8620    7.1670 O.3    58  DC58       -0.4373
   1174  OP2      -18.9570    9.1770    4.9810 O.2    58  DC58       -0.5172
   1175  O5'      -19.8350    8.3960    7.1710 O.3    58  DC58       -0.3114
   1176  C5'      -19.9430    8.4120    8.5840 C.3    58  DC58        0.1811
   1177  C4'      -21.2840    7.8390    8.9880 C.3    58  DC58        0.1746
   1178  O4'      -22.2710    8.2110    8.0090 O.3    58  DC58       -0.3327
   1179  C3'      -21.3860    6.3320    8.9280 C.3    58  DC58        0.1558
   1180  O3'      -20.7780    5.7530   10.0530 O.3    58  DC58       -0.3138
   1181  C2'      -22.8910    6.1100    8.9020 C.3    58  DC58        0.0866
   1182  C1'      -23.2830    7.2250    7.9440 C.3    58  DC58        0.2106
   1183  N1       -23.4030    6.8910    6.5710 N.ar   58  DC58       -0.2556
   1184  C2       -24.4550    6.0780    6.1320 C.ar   58  DC58        0.3531
   1185  O2       -25.2470    5.6210    6.9730 O.2    58  DC58       -0.2443
   1186  N3       -24.5770    5.8140    4.8090 N.ar   58  DC58       -0.1739
   1187  C4       -23.7020    6.3270    3.9430 C.ar   58  DC58        0.1759
   1188  N4       -23.8620    6.0390    2.6490 N.pl3  58  DC58       -0.1070
   1189  C5       -22.6290    7.1530    4.3670 C.ar   58  DC58        0.0566
   1190  C6       -22.5120    7.4110    5.6740 C.ar   58  DC58        0.0849
   1191  P        -19.9310    4.5070    9.7480 P.3    59  DC59        0.2141
   1192  OP1      -19.0660    4.5700   10.9500 O.3    59  DC59       -0.4373
   1193  OP2      -19.2990    4.4600    8.4020 O.2    59  DC59       -0.5172
   1194  O5'      -20.8860    3.2570    9.9790 O.3    59  DC59       -0.3114
   1195  C5'      -21.9310    3.3350   10.9510 C.3    59  DC59        0.1811
   1196  C4'      -23.0920    2.4460   10.5790 C.3    59  DC59        0.1746
   1197  O4'      -23.9690    3.0560    9.5900 O.3    59  DC59       -0.3327
   1198  C3'      -22.7150    1.1080    9.9780 C.3    59  DC59        0.1558
   1199  O3'      -22.2760    0.2090   10.9780 O.3    59  DC59       -0.3138
   1200  C2'      -24.0050    0.7000    9.2710 C.3    59  DC59        0.0866
   1201  C1'      -24.5030    2.0440    8.7500 C.3    59  DC59        0.2106
   1202  N1       -24.0550    2.3000    7.3590 N.ar   59  DC59       -0.2556
   1203  C2       -24.7580    1.6210    6.3560 C.ar   59  DC59        0.3531
   1204  O2       -25.7610    0.9590    6.6730 O.2    59  DC59       -0.2443
   1205  N3       -24.3260    1.7050    5.0760 N.ar   59  DC59       -0.1739
   1206  C4       -23.2440    2.4270    4.7820 C.ar   59  DC59        0.1759
   1207  N4       -22.8550    2.4800    3.5060 N.pl3  59  DC59       -0.1070
   1208  C5       -22.5180    3.1220    5.7830 C.ar   59  DC59        0.0566
   1209  C6       -22.9480    3.0370    7.0470 C.ar   59  DC59        0.0849
   1210  P        -21.4350   -1.2790   10.5660 P.3    60  DA60        0.2141
   1211  OP1      -21.2710   -1.9540   11.8780 O.3    60  DA60       -0.4373
   1212  OP2      -20.2560   -1.1030    9.6770 O.2    60  DA60       -0.5172
   1213  O5'      -22.5690   -2.0100    9.7190 O.3    60  DA60       -0.3114
   1214  C5'      -23.6950   -2.6360   10.3600 C.3    60  DA60        0.1811
   1215  C4'      -24.3400   -3.6240    9.4180 C.3    60  DA60        0.1746
   1216  O4'      -24.9870   -2.9140    8.3260 O.3    60  DA60       -0.3327
   1217  C3'      -23.3530   -4.5360    8.7130 C.3    60  DA60        0.1558
   1218  O3'      -22.9400   -5.6250    9.5170 O.3    60  DA60       -0.3138
   1219  C2'      -24.1270   -4.9580    7.4800 C.3    60  DA60        0.0865
   1220  C1'      -24.8100   -3.6410    7.1140 C.3    60  DA60        0.2094
   1221  N9       -23.9800   -2.8230    6.2100 N.ar   60  DA60       -0.2714
   1222  C8       -23.0750   -1.8450    6.5290 C.ar   60  DA60        0.1815
   1223  N7       -22.4680   -1.3250    5.4880 N.ar   60  DA60       -0.2193
   1224  C5       -23.0110   -2.0100    4.4120 C.ar   60  DA60        0.1518
   1225  C6       -22.7870   -1.9250    3.0260 C.ar   60  DA60        0.1919
   1226  N6       -21.9180   -1.0790    2.4690 N.pl3  60  DA60       -0.1054
   1227  N1       -23.4930   -2.7510    2.2260 N.ar   60  DA60       -0.2040
   1228  C2       -24.3640   -3.5990    2.7860 C.ar   60  DA60        0.2016
   1229  N3       -24.6630   -3.7700    4.0720 N.ar   60  DA60       -0.2048
   1230  C4       -23.9430   -2.9350    4.8410 C.ar   60  DA60        0.1691
   1231  P        -21.5580   -6.0290    9.4200 P.3    61  DC61        0.2141
   1232  OP1      -21.5220   -6.7990   10.6980 O.3    61  DC61       -0.4373
   1233  OP2      -20.4180   -5.1750    9.0430 O.2    61  DC61       -0.5172
   1234  O5'      -21.7280   -6.9940    8.1770 O.3    61  DC61       -0.3114
   1235  C5'      -22.7840   -7.9640    8.2250 C.3    61  DC61        0.1811
   1236  C4'      -23.0500   -8.4530    6.8220 C.3    61  DC61        0.1746
   1237  O4'      -23.4480   -7.3380    5.9780 O.3    61  DC61       -0.3327
   1238  C3'      -21.8170   -8.9960    6.1040 C.3    61  DC61        0.1558
   1239  O3'      -21.6520  -10.3790    6.5180 O.3    61  DC61       -0.3138
   1240  C2'      -22.3210   -8.9760    4.6500 C.3    61  DC61        0.0866
   1241  C1'      -22.9610   -7.5900    4.6750 C.3    61  DC61        0.2106
   1242  N1       -22.0380   -6.5030    4.2870 N.ar   61  DC61       -0.2556
   1243  C2       -21.8140   -6.2140    2.9350 C.ar   61  DC61        0.3531
   1244  O2       -22.3980   -6.8940    2.0740 O.2    61  DC61       -0.2443
   1245  N3       -20.9700   -5.2070    2.6070 N.ar   61  DC61       -0.1739
   1246  C4       -20.3640   -4.5050    3.5650 C.ar   61  DC61        0.1759
   1247  N4       -19.5410   -3.5220    3.1940 N.pl3  61  DC61       -0.1070
   1248  C5       -20.5780   -4.7820    4.9400 C.ar   61  DC61        0.0566
   1249  C6       -21.4120   -5.7770    5.2600 C.ar   61  DC61        0.0849
   1250  P        -20.0710  -11.0790    6.3930 P.3    62  DC62        0.2141
   1251  OP1      -20.1760  -12.3150    7.2080 O.3    62  DC62       -0.4373
   1252  OP2      -19.3080   -9.9150    6.9100 O.2    62  DC62       -0.5172
   1253  O5'      -19.5160  -11.4610    4.9550 O.3    62  DC62       -0.3114
   1254  C5'      -20.2650  -12.3390    4.1380 C.3    62  DC62        0.1811
   1255  C4'      -20.2000  -11.9250    2.6920 C.3    62  DC62        0.1746
   1256  O4'      -20.7590  -10.5980    2.4870 O.3    62  DC62       -0.3327
   1257  C3'      -18.8410  -11.7880    2.0490 C.3    62  DC62        0.1558
   1258  O3'      -18.2140  -13.0210    1.8300 O.3    62  DC62       -0.3138
   1259  C2'      -19.1880  -11.0430    0.7770 C.3    62  DC62        0.0866
   1260  C1'      -20.2020  -10.0350    1.3030 C.3    62  DC62        0.2106
   1261  N1       -19.4050   -8.8050    1.6150 N.ar   62  DC62       -0.2556
   1262  C2       -18.8940   -7.9700    0.6140 C.ar   62  DC62        0.3531
   1263  O2       -18.9220   -8.3630   -0.5640 O.2    62  DC62       -0.2443
   1264  N3       -18.3850   -6.7630    0.9590 N.ar   62  DC62       -0.1739
   1265  C4       -18.3750   -6.3830    2.2370 C.ar   62  DC62        0.1759
   1266  N4       -17.8630   -5.1850    2.5290 N.pl3  62  DC62       -0.1070
   1267  C5       -18.8880   -7.2140    3.2660 C.ar   62  DC62        0.0566
   1268  C6       -19.3890   -8.4050    2.9220 C.ar   62  DC62        0.0849
   1269  P        -16.9110  -13.2540    2.6110 P.3    63  DT63        0.2141
   1270  OP1      -16.3960  -14.6440    2.7720 O.2    63  DT63       -0.5172
   1271  OP2      -16.7820  -12.2770    3.7160 O.3    63  DT63       -0.4373
   1272  O5'      -16.2760  -12.5750    1.3020 O.3    63  DT63       -0.3114
   1273  C5'      -16.1320  -13.3030    0.1050 C.3    63  DT63        0.1812
   1274  C4'      -15.8880  -12.3530   -1.0390 C.3    63  DT63        0.1775
   1275  O4'      -16.8010  -11.2390   -0.9160 O.3    63  DT63       -0.3326
   1276  C3'      -14.5280  -11.6860   -1.0750 C.3    63  DT63        0.1864
   1277  O3'      -13.4750  -12.5660   -1.5650 O.3    63  DT63       -0.2133
   1278  C2'      -14.8440  -10.5030   -1.9960 C.3    63  DT63        0.0895
   1279  C1'      -16.2180  -10.0910   -1.4920 C.3    63  DT63        0.2107
   1280  N1       -16.1440   -9.1330   -0.4540 N.ar   63  DT63       -0.2559
   1281  C2       -15.7110   -7.8710   -0.8140 C.ar   63  DT63        0.3545
   1282  O2       -15.5030   -7.5440   -1.9690 O.2    63  DT63       -0.2443
   1283  N3       -15.5270   -7.0000    0.2320 N.ar   63  DT63       -0.1533
   1284  C4       -15.7280   -7.2580    1.5720 C.ar   63  DT63        0.2804
   1285  O4       -15.5200   -6.3720    2.3970 O.2    63  DT63       -0.2654
   1286  C5       -16.1770   -8.5900    1.8650 C.ar   63  DT63        0.0534
   1287  C6       -16.3640   -9.4580    0.8670 C.ar   63  DT63        0.0824
   1288  C7       -16.4240   -8.9690    3.2950 C.3    63  DT63        0.0377
   1289  P        -11.8030  -12.0630   -1.8420 P.3    64  DA64        0.3939
   1290  OP1      -12.5480  -13.0600   -2.6430 O.3    64  DA64       -0.1496
   1291  OP2      -10.6660  -12.4590   -0.9750 O.3    64  DA64       -0.1425
   1292  O5'      -11.1580  -10.9990   -2.8470 O.3    64  DA64       -0.2926
   1293  C5'      -11.7520  -10.8460   -4.1310 C.3    64  DA64        0.1828
   1294  C4'      -11.2720   -9.6060   -4.8430 C.3    64  DA64        0.1747
   1295  O4'      -12.0210   -8.4790   -4.3120 O.3    64  DA64       -0.3327
   1296  C3'       -9.7860   -9.3010   -4.6650 C.3    64  DA64        0.1558
   1297  O3'       -9.0560   -9.2360   -5.8900 O.3    64  DA64       -0.3138
   1298  C2'       -9.7320   -7.9400   -3.9770 C.3    64  DA64        0.0865
   1299  C1'      -11.1640   -7.4380   -3.8940 C.3    64  DA64        0.2094
   1300  N9       -11.2290   -7.2480   -2.3530 N.ar   64  DA64       -0.2714
   1301  C8       -11.4980   -8.1020   -1.3150 C.ar   64  DA64        0.1815
   1302  N7       -11.2500   -7.5900   -0.1320 N.ar   64  DA64       -0.2193
   1303  C5       -10.7860   -6.3150   -0.4130 C.ar   64  DA64        0.1518
   1304  C6       -10.3530   -5.2630    0.4130 C.ar   64  DA64        0.1919
   1305  N6       -10.3190   -5.3350    1.7460 N.pl3  64  DA64       -0.1054
   1306  N1        -9.9530   -4.1210   -0.1850 N.ar   64  DA64       -0.2040
   1307  C2        -9.9890   -4.0480   -1.5210 C.ar   64  DA64        0.2016
   1308  N3       -10.3750   -4.9680   -2.4020 N.ar   64  DA64       -0.2048
   1309  C4       -10.7660   -6.0900   -1.7760 C.ar   64  DA64        0.1691
   1310  P         -7.2960   -9.6800   -5.8810 P.3    65  DT65        0.2141
   1311  OP1       -6.5020   -9.8210   -7.1180 O.2    65  DT65       -0.5172
   1312  OP2       -7.2300  -10.6980   -4.8110 O.3    65  DT65       -0.4373
   1313  O5'       -6.7960   -8.3520   -5.1450 O.3    65  DT65       -0.3114
   1314  C5'       -6.5770   -7.1510   -5.8710 C.3    65  DT65        0.1811
   1315  C4'       -6.3140   -5.9750   -4.9590 C.3    65  DT65        0.1746
   1316  O4'       -7.3510   -5.8230   -3.9490 O.3    65  DT65       -0.3327
   1317  C3'       -5.0610   -6.0810   -4.1180 C.3    65  DT65        0.1558
   1318  O3'       -3.8800   -5.8950   -4.8650 O.3    65  DT65       -0.3138
   1319  C2'       -5.3110   -5.0120   -3.0700 C.3    65  DT65        0.0866
   1320  C1'       -6.7860   -5.2780   -2.7710 C.3    65  DT65        0.2106
   1321  N1        -6.9510   -6.2630   -1.6470 N.ar   65  DT65       -0.2559
   1322  C2        -6.7140   -5.8720   -0.3430 C.ar   65  DT65        0.3545
   1323  O2        -6.2280   -4.7940   -0.0500 O.2    65  DT65       -0.2443
   1324  N3        -7.0670   -6.7940    0.6130 N.ar   65  DT65       -0.1533
   1325  C4        -7.6210   -8.0390    0.4000 C.ar   65  DT65        0.2804
   1326  O4        -7.8850   -8.7560    1.3620 O.2    65  DT65       -0.2654
   1327  C5        -7.8360   -8.3720   -0.9800 C.ar   65  DT65        0.0534
   1328  C6        -7.5020   -7.4940   -1.9300 C.ar   65  DT65        0.0824
   1329  C7        -8.4340   -9.7060   -1.3150 C.3    65  DT65        0.0377
   1330  P         -2.9180   -7.1280   -4.8940 P.3    66  DG66        0.2141
   1331  OP1       -1.9220   -6.6110   -5.8510 O.2    66  DG66       -0.5172
   1332  OP2       -3.0120   -8.5830   -4.6580 O.3    66  DG66       -0.4373
   1333  O5'       -2.6060   -6.3920   -3.5180 O.3    66  DG66       -0.3114
   1334  C5'       -1.8280   -5.2060   -3.5110 C.3    66  DG66        0.1811
   1335  C4'       -1.3520   -4.8900   -2.1180 C.3    66  DG66        0.1746
   1336  O4'       -2.4970   -4.6020   -1.2710 O.3    66  DG66       -0.3327
   1337  C3'       -0.6760   -6.0340   -1.4080 C.3    66  DG66        0.1558
   1338  O3'        0.6830   -6.1530   -1.7690 O.3    66  DG66       -0.3138
   1339  C2'       -0.8520   -5.6620    0.0530 C.3    66  DG66        0.0865
   1340  C1'       -2.2540   -5.0710    0.0430 C.3    66  DG66        0.2094
   1341  N9        -3.2460   -6.1120    0.3990 N.ar   66  DG66       -0.2713
   1342  C8        -4.1510   -6.7160   -0.4410 C.ar   66  DG66        0.1816
   1343  N7        -4.9520   -7.5430    0.1730 N.ar   66  DG66       -0.2173
   1344  C5        -4.5580   -7.4830    1.4970 C.ar   66  DG66        0.1748
   1345  C6        -5.0550   -8.1620    2.6400 C.ar   66  DG66        0.3023
   1346  O6        -5.9800   -8.9800    2.7020 O.2    66  DG66       -0.2633
   1347  N1        -4.3640   -7.8100    3.7960 N.ar   66  DG66       -0.1709
   1348  C2        -3.3220   -6.9140    3.8450 C.ar   66  DG66        0.2606
   1349  N2        -2.7810   -6.7030    5.0520 N.pl3  66  DG66       -0.0859
   1350  N3        -2.8490   -6.2770    2.7920 N.ar   66  DG66       -0.1918
   1351  C4        -3.5040   -6.6040    1.6580 C.ar   66  DG66        0.1722
   1352  P          1.2900   -7.5830   -2.0020 P.3    67  DC67        0.2141
   1353  OP1        2.7070   -7.3920   -2.4160 O.3    67  DC67       -0.4373
   1354  OP2        0.4520   -8.5950   -2.6950 O.2    67  DC67       -0.5172
   1355  O5'        1.2530   -7.8880   -0.4410 O.3    67  DC67       -0.3114
   1356  C5'        1.8440   -6.9680    0.4880 C.3    67  DC67        0.1811
   1357  C4'        1.8140   -7.5410    1.8800 C.3    67  DC67        0.1746
   1358  O4'        0.4910   -7.4200    2.4590 O.3    67  DC67       -0.3327
   1359  C3'        2.1410   -9.0170    1.9860 C.3    67  DC67        0.1558
   1360  O3'        3.5390   -9.2520    1.9680 O.3    67  DC67       -0.3138
   1361  C2'        1.4990   -9.4060    3.3130 C.3    67  DC67        0.0866
   1362  C1'        0.2570   -8.5130    3.3330 C.3    67  DC67        0.2106
   1363  N1        -0.9710   -9.2780    2.9020 N.ar   67  DC67       -0.2556
   1364  C2        -1.7010  -10.0000    3.8530 C.ar   67  DC67        0.3531
   1365  O2        -1.3390   -9.9590    5.0420 O.2    67  DC67       -0.2443
   1366  N3        -2.7760  -10.7200    3.4530 N.ar   67  DC67       -0.1739
   1367  C4        -3.1270  -10.7350    2.1660 C.ar   67  DC67        0.1759
   1368  N4        -4.1930  -11.4590    1.8180 N.pl3  67  DC67       -0.1070
   1369  C5        -2.4000  -10.0110    1.1870 C.ar   67  DC67        0.0566
   1370  C6        -1.3390   -9.3010    1.5870 C.ar   67  DC67        0.0849
   1371  P          4.1180  -10.8400    1.7100 P.3    68  DG68        0.2141
   1372  OP1        5.5890  -10.7990    1.8940 O.3    68  DG68       -0.4373
   1373  OP2        3.5460  -10.5040    0.3750 O.2    68  DG68       -0.5172
   1374  O5'        3.5710  -12.2870    2.1170 O.3    68  DG68       -0.3114
   1375  C5'        3.7290  -12.7970    3.4450 C.3    68  DG68        0.1812
   1376  C4'        3.0950  -14.1730    3.5740 C.3    68  DG68        0.1775
   1377  O4'        1.6460  -14.0410    3.5590 O.3    68  DG68       -0.3326
   1378  C3'        3.4170  -15.1880    2.4820 C.3    68  DG68        0.1859
   1379  O3'        4.6690  -15.8600    2.6730 O.3    68  DG68       -0.2202
   1380  C2'        2.1980  -16.1160    2.5170 C.3    68  DG68        0.0894
   1381  C1'        1.0680  -15.1410    2.8750 C.3    68  DG68        0.2095
   1382  N9         0.4020  -14.6380    1.6420 N.ar   68  DG68       -0.2713
   1383  C8         0.5850  -13.4300    1.0140 C.ar   68  DG68        0.1816
   1384  N7        -0.1380  -13.2960   -0.0650 N.ar   68  DG68       -0.2173
   1385  C5        -0.8420  -14.4810   -0.1560 C.ar   68  DG68        0.1748
   1386  C6        -1.7870  -14.9230   -1.1180 C.ar   68  DG68        0.3023
   1387  O6        -2.1990  -14.3220   -2.1180 O.2    68  DG68       -0.2633
   1388  N1        -2.2620  -16.2000   -0.8340 N.ar   68  DG68       -0.1709
   1389  C2        -1.8760  -16.9580    0.2450 C.ar   68  DG68        0.2606
   1390  N2        -2.4460  -18.1660    0.3530 N.pl3  68  DG68       -0.0859
   1391  N3        -0.9990  -16.5620    1.1470 N.ar   68  DG68       -0.1918
   1392  C4        -0.5230  -15.3250    0.8910 C.ar   68  DG68        0.1722
   1393  P          5.7770  -16.2010    1.3590 P.3    69  DT69        0.4149
   1394  OP1        6.8560  -17.1630    1.7160 O.2    69  DT69       -0.2668
   1395  OP2        5.7000  -15.6740   -0.0340 O.3    69  DT69       -0.1481
   1396  O5'        4.3610  -16.8380    1.7160 O.3    69  DT69       -0.2177
   1397  C5'        4.2340  -18.2550    2.0180 C.3    69  DT69        0.2140
   1398  C4'        3.6410  -19.0330    0.8420 C.3    69  DT69        0.1776
   1399  O4'        2.3050  -18.5450    0.5260 O.3    69  DT69       -0.3326
   1400  C3'        4.3870  -18.9980   -0.4870 C.3    69  DT69        0.1559
   1401  O3'        5.4160  -19.9790   -0.5510 O.3    69  DT69       -0.3138
   1402  C2'        3.2890  -19.3370   -1.4760 C.3    69  DT69        0.0866
   1403  C1'        2.0880  -18.6190   -0.8710 C.3    69  DT69        0.2106
   1404  N1         1.8280  -17.1740   -1.3940 N.ar   69  DT69       -0.2559
   1405  C2         1.0470  -17.2430   -2.5320 C.ar   69  DT69        0.3545
   1406  O2         0.5280  -18.2740   -2.9210 O.2    69  DT69       -0.2443
   1407  N3         0.8950  -16.0540   -3.2050 N.ar   69  DT69       -0.1533
   1408  C4         1.4340  -14.8320   -2.8610 C.ar   69  DT69        0.2804
   1409  O4         1.2070  -13.8510   -3.5650 O.2    69  DT69       -0.2654
   1410  C5         2.2330  -14.8430   -1.6680 C.ar   69  DT69        0.0534
   1411  C6         2.3970  -15.9850   -0.9950 C.ar   69  DT69        0.0824
   1412  C7         2.8640  -13.5610   -1.2110 C.3    69  DT69        0.0377
   1413  P          6.4260  -19.8280   -1.5030 P.3    70  DG70        0.2141
   1414  OP1        7.2820  -21.0000   -1.2100 O.2    70  DG70       -0.5172
   1415  OP2        6.7670  -18.4850   -0.9780 O.3    70  DG70       -0.4373
   1416  O5'        6.3610  -19.6280   -3.0890 O.3    70  DG70       -0.3114
   1417  C5'        5.8880  -20.6970   -3.8910 C.3    70  DG70        0.1811
   1418  C4'        5.3820  -20.2070   -5.2220 C.3    70  DG70        0.1746
   1419  O4'        4.2250  -19.3520   -5.0340 O.3    70  DG70       -0.3327
   1420  C3'        6.3450  -19.3440   -6.0170 C.3    70  DG70        0.1558
   1421  O3'        7.3290  -20.1100   -6.6930 O.3    70  DG70       -0.3138
   1422  C2'        5.4030  -18.5890   -6.9480 C.3    70  DG70        0.0865
   1423  C1'        4.1880  -18.3700   -6.0460 C.3    70  DG70        0.2094
   1424  N9         4.1740  -17.0470   -5.4200 N.ar   70  DG70       -0.2713
   1425  C8         4.3460  -16.7840   -4.0820 C.ar   70  DG70        0.1816
   1426  N7         4.2310  -15.5170   -3.7880 N.ar   70  DG70       -0.2173
   1427  C5         3.9660  -14.9060   -4.9990 C.ar   70  DG70        0.1748
   1428  C6         3.7470  -13.5400   -5.3150 C.ar   70  DG70        0.3023
   1429  O6         3.7430  -12.5680   -4.5500 O.2    70  DG70       -0.2633
   1430  N1         3.5140  -13.3520   -6.6750 N.ar   70  DG70       -0.1709
   1431  C2         3.4940  -14.3550   -7.6140 C.ar   70  DG70        0.2606
   1432  N2         3.2510  -13.9780   -8.8760 N.pl3  70  DG70       -0.0859
   1433  N3         3.6970  -15.6280   -7.3350 N.ar   70  DG70       -0.1918
   1434  C4         3.9270  -15.8340   -6.0210 C.ar   70  DG70        0.1722
   1435  P          8.8760  -19.4920   -7.0360 P.3    71  DC71        0.2141
   1436  OP1        9.8120  -20.5320   -7.5240 O.2    71  DC71       -0.5172
   1437  OP2        9.2190  -18.7000   -5.8280 O.3    71  DC71       -0.4373
   1438  O5'        8.6570  -18.4240   -8.2000 O.3    71  DC71       -0.3114
   1439  C5'        8.1710  -18.8260   -9.4880 C.3    71  DC71        0.1811
   1440  C4'        7.8730  -17.6120  -10.3300 C.3    71  DC71        0.1746
   1441  O4'        6.7740  -16.8620   -9.7470 O.3    71  DC71       -0.3327
   1442  C3'        9.0080  -16.6030  -10.4170 C.3    71  DC71        0.1558
   1443  O3'        9.9450  -16.9670  -11.4150 O.3    71  DC71       -0.3138
   1444  C2'        8.2710  -15.3200  -10.7580 C.3    71  DC71        0.0866
   1445  C1'        6.9940  -15.4760   -9.9310 C.3    71  DC71        0.2106
   1446  N1         7.0720  -14.8220   -8.5830 N.ar   71  DC71       -0.2556
   1447  C2         6.7340  -13.4670   -8.4880 C.ar   71  DC71        0.3531
   1448  O2         6.3720  -12.8680   -9.5140 O.2    71  DC71       -0.2443
   1449  N3         6.8130  -12.8510   -7.2840 N.ar   71  DC71       -0.1739
   1450  C4         7.2080  -13.5350   -6.2100 C.ar   71  DC71        0.1759
   1451  N4         7.2710  -12.8860   -5.0450 N.pl3  71  DC71       -0.1070
   1452  C5         7.5550  -14.9080   -6.2850 C.ar   71  DC71        0.0566
   1453  C6         7.4750  -15.5130   -7.4760 C.ar   71  DC71        0.0849
   1454  P         11.7460  -16.5740  -11.2290 P.3    72  DT72        0.2141
   1455  OP1       13.0380  -16.9300  -11.8600 O.2    72  DT72       -0.5172
   1456  OP2       11.5350  -16.7510   -9.7730 O.3    72  DT72       -0.4373
   1457  O5'       11.4630  -15.0590  -11.5980 O.3    72  DT72       -0.3114
   1458  C5'       11.2170  -14.7850  -12.9500 C.3    72  DT72        0.1811
   1459  C4'       10.7170  -13.3690  -13.0260 C.3    72  DT72        0.1746
   1460  O4'        9.7540  -13.1720  -11.9650 O.3    72  DT72       -0.3327
   1461  C3'       11.7800  -12.3340  -12.7200 C.3    72  DT72        0.1558
   1462  O3'       12.6050  -12.1170  -13.8720 O.3    72  DT72       -0.3138
   1463  C2'       10.8860  -11.1420  -12.4050 C.3    72  DT72        0.0866
   1464  C1'        9.6780  -11.7850  -11.7220 C.3    72  DT72        0.2106
   1465  N1         9.5920  -11.5570  -10.3440 N.ar   72  DT72       -0.2559
   1466  C2         9.6000  -10.2510   -9.8930 C.ar   72  DT72        0.3545
   1467  O2         9.4460   -9.2930  -10.6300 O.2    72  DT72       -0.2443
   1468  N3         9.7960  -10.1040   -8.5410 N.ar   72  DT72       -0.1533
   1469  C4         9.9820  -11.1100   -7.6150 C.ar   72  DT72        0.2804
   1470  O4        10.1450  -10.8200   -6.4330 O.2    72  DT72       -0.2654
   1471  C5         9.9620  -12.4380   -8.1610 C.ar   72  DT72        0.0534
   1472  C6         9.7730  -12.6090   -9.4720 C.ar   72  DT72        0.0824
   1473  C7        10.1560  -13.6010   -7.2340 C.3    72  DT72        0.0377
   1474  P         14.3880  -12.0070  -13.8350 P.3    73  DA73        0.2141
   1475  OP1       15.3400  -12.3900  -14.9080 O.2    73  DA73       -0.5172
   1476  OP2       14.3100  -12.8330  -12.6040 O.3    73  DA73       -0.4373
   1477  O5'       14.6010  -10.4740  -13.4410 O.3    73  DA73       -0.3114
   1478  C5'       14.8160   -9.4520  -14.4180 C.3    73  DA73        0.1811
   1479  C4'       14.7910   -8.0870  -13.7760 C.3    73  DA73        0.1746
   1480  O4'       13.5600   -7.9330  -13.0260 O.3    73  DA73       -0.3327
   1481  C3'       15.8780   -7.7940  -12.7550 C.3    73  DA73        0.1558
   1482  O3'       17.0910   -7.3900  -13.3630 O.3    73  DA73       -0.3138
   1483  C2'       15.2380   -6.7080  -11.8950 C.3    73  DA73        0.0865
   1484  C1'       13.7840   -7.1690  -11.8600 C.3    73  DA73        0.2094
   1485  N9        13.4920   -8.0330  -10.6520 N.ar   73  DA73       -0.2714
   1486  C8        13.6450   -9.3770  -10.4300 C.ar   73  DA73        0.1815
   1487  N7        13.2830   -9.7580   -9.2280 N.ar   73  DA73       -0.2193
   1488  C5        12.8650   -8.5860   -8.6200 C.ar   73  DA73        0.1518
   1489  C6        12.3610   -8.3140   -7.3360 C.ar   73  DA73        0.1919
   1490  N6        12.1850   -9.2470   -6.3970 N.pl3  73  DA73       -0.1054
   1491  N1        12.0390   -7.0350   -7.0470 N.ar   73  DA73       -0.2040
   1492  C2        12.2140   -6.1000   -7.9880 C.ar   73  DA73        0.2016
   1493  N3        12.6780   -6.2330   -9.2280 N.ar   73  DA73       -0.2048
   1494  C4        12.9890   -7.5150   -9.4840 C.ar   73  DA73        0.1691
   1495  P         18.6220   -7.4930  -12.5010 P.3    74  DC74        0.2141
   1496  OP1       19.4940   -6.7600  -13.4530 O.2    74  DC74       -0.5172
   1497  OP2       19.2040   -8.5590  -11.6440 O.3    74  DC74       -0.4373
   1498  O5'       17.9190   -6.4240  -11.5470 O.3    74  DC74       -0.3114
   1499  C5'       17.6730   -5.0930  -11.9970 C.3    74  DC74        0.1812
   1500  C4'       17.2120   -4.2080  -10.8540 C.3    74  DC74        0.1775
   1501  O4'       15.9290   -4.6870  -10.3560 O.3    74  DC74       -0.3326
   1502  C3'       18.1000   -4.2120   -9.6140 C.3    74  DC74        0.1864
   1503  O3'       19.2110   -3.3280   -9.7220 O.3    74  DC74       -0.2133
   1504  C2'       17.1340   -3.7640   -8.5220 C.3    74  DC74        0.0895
   1505  C1'       15.8440   -4.4570   -8.9570 C.3    74  DC74        0.2107
   1506  N1        15.6020   -5.7090   -8.2160 N.ar   74  DC74       -0.2556
   1507  C2        14.9400   -5.5970   -6.9880 C.ar   74  DC74        0.3531
   1508  O2        14.4080   -4.5130   -6.6920 O.2    74  DC74       -0.2443
   1509  N3        14.8990   -6.6690   -6.1610 N.ar   74  DC74       -0.1739
   1510  C4        15.4850   -7.8110   -6.5200 C.ar   74  DC74        0.1759
   1511  N4        15.4190   -8.8410   -5.6720 N.pl3  74  DC74       -0.1070
   1512  C5        16.1610   -7.9450   -7.7600 C.ar   74  DC74        0.0566
   1513  C6        16.1990   -6.8840   -8.5740 C.ar   74  DC74        0.0849
   1514  P         20.4190   -3.4090   -8.6030 P.3    75  DC75        0.3939
   1515  OP1       20.6920   -2.6640   -9.8610 O.3    75  DC75       -0.1496
   1516  OP2       21.5550   -3.8880   -7.7750 O.3    75  DC75       -0.1425
   1517  O5'       19.5580   -2.4710   -7.6490 O.3    75  DC75       -0.2926
   1518  C5'       20.0530   -2.1470   -6.3610 C.3    75  DC75        0.1828
   1519  C4'       18.9990   -1.4560   -5.5350 C.3    75  DC75        0.1747
   1520  O4'       17.7720   -2.2280   -5.5680 O.3    75  DC75       -0.3327
   1521  C3'       19.3470   -1.4260   -4.0600 C.3    75  DC75        0.1558
   1522  O3'       20.2410   -0.3840   -3.7500 O.3    75  DC75       -0.3138
   1523  C2'       17.9920   -1.2940   -3.3930 C.3    75  DC75        0.0866
   1524  C1'       17.1470   -2.1840   -4.2960 C.3    75  DC75        0.2106
   1525  N1        17.0960   -3.7060   -4.1100 N.ar   75  DC75       -0.2556
   1526  C2        16.5610   -4.2650   -2.9440 C.ar   75  DC75        0.3531
   1527  O2        16.1400   -3.5060   -2.0550 O.2    75  DC75       -0.2443
   1528  N3        16.5180   -5.6130   -2.8190 N.ar   75  DC75       -0.1739
   1529  C4        16.9820   -6.3890   -3.7990 C.ar   75  DC75        0.1759
   1530  N4        16.9190   -7.7120   -3.6310 N.pl3  75  DC75       -0.1070
   1531  C5        17.5280   -5.8420   -4.9880 C.ar   75  DC75        0.0566
   1532  C6        17.5690   -4.5100   -5.1080 C.ar   75  DC75        0.0849
   1533  P         21.7610   -0.7750   -3.3430 P.3    76  DG76        0.2141
   1534  OP1       22.1640    0.6260   -3.0280 O.3    76  DG76       -0.4373
   1535  OP2       22.7840   -1.7670   -3.6450 O.2    76  DG76       -0.5172
   1536  O5'       20.7240   -1.2100   -2.2380 O.3    76  DG76       -0.3114
   1537  C5'       20.3580   -0.0890   -1.3860 C.3    76  DG76        0.1811
   1538  C4'       19.5420   -0.5310   -0.2020 C.3    76  DG76        0.1746
   1539  O4'       18.5970   -1.5180   -0.6540 O.3    76  DG76       -0.3327
   1540  C3'       20.3450   -1.2850    0.8320 C.3    76  DG76        0.1558
   1541  O3'       20.9550   -0.3820    1.7480 O.3    76  DG76       -0.3138
   1542  C2'       19.2470   -2.0340    1.5100 C.3    76  DG76        0.0865
   1543  C1'       18.4270   -2.4680    0.3470 C.3    76  DG76        0.2094
   1544  N9        18.7400   -3.8720   -0.0680 N.ar   76  DG76       -0.2713
   1545  C8        19.1690   -4.2630   -1.3140 C.ar   76  DG76        0.1816
   1546  N7        19.2720   -5.5580   -1.4400 N.ar   76  DG76       -0.2173
   1547  C5        18.8870   -6.0550   -0.2090 C.ar   76  DG76        0.1748
   1548  C6        18.7970   -7.3910    0.2600 C.ar   76  DG76        0.3023
   1549  O6        19.0500   -8.4360   -0.3510 O.2    76  DG76       -0.2633
   1550  N1        18.3630   -7.4500    1.5820 N.ar   76  DG76       -0.1709
   1551  C2        18.0540   -6.3570    2.3560 C.ar   76  DG76        0.2606
   1552  N2        17.6510   -6.6140    3.6070 N.pl3  76  DG76       -0.0859
   1553  N3        18.1340   -5.1100    1.9340 N.ar   76  DG76       -0.1918
   1554  C4        18.5540   -5.0280    0.6540 C.ar   76  DG76        0.1722
   1555  P         22.3180   -0.6410    1.8160 P.3    77  DT77        0.2141
   1556  OP1       22.6310    0.7340    2.2600 O.3    77  DT77       -0.4373
   1557  OP2       23.1260   -1.2750    0.7480 O.2    77  DT77       -0.5172
   1558  O5'       22.4560   -1.6360    3.0630 O.3    77  DT77       -0.3114
   1559  C5'       21.6050   -1.4030    4.1740 C.3    77  DT77        0.1811
   1560  C4'       21.3010   -2.6610    4.9480 C.3    77  DT77        0.1746
   1561  O4'       20.4770   -3.5620    4.1670 O.3    77  DT77       -0.3327
   1562  C3'       22.4960   -3.5160    5.3250 C.3    77  DT77        0.1558
   1563  O3'       23.1940   -3.0050    6.4390 O.3    77  DT77       -0.3138
   1564  C2'       21.8480   -4.8560    5.6170 C.3    77  DT77        0.0866
   1565  C1'       20.7670   -4.8920    4.5370 C.3    77  DT77        0.2106
   1566  N1        21.0740   -5.6390    3.3550 N.ar   77  DT77       -0.2559
   1567  C2        21.1410   -7.0180    3.4340 C.ar   77  DT77        0.3545
   1568  O2        20.9190   -7.6360    4.4590 O.2    77  DT77       -0.2443
   1569  N3        21.4810   -7.6500    2.2620 N.ar   77  DT77       -0.1533
   1570  C4        21.7550   -7.0570    1.0480 C.ar   77  DT77        0.2804
   1571  O4        22.0450   -7.7590    0.0830 O.2    77  DT77       -0.2654
   1572  C5        21.6650   -5.6230    1.0480 C.ar   77  DT77        0.0534
   1573  C6        21.3370   -4.9830    2.1730 C.ar   77  DT77        0.0824
   1574  C7        21.9460   -4.8830   -0.2270 C.3    77  DT77        0.0377
   1575  P         24.7660   -3.1130    6.4060 P.3    78  DG78        0.2141
   1576  OP1       24.9030   -2.9960    7.8740 O.3    78  DG78       -0.4373
   1577  OP2       25.6460   -2.3420    5.5000 O.2    78  DG78       -0.5172
   1578  O5'       25.0460   -4.6330    6.0190 O.3    78  DG78       -0.3114
   1579  C5'       24.9730   -5.5870    7.0600 C.3    78  DG78        0.1811
   1580  C4'       25.5400   -6.8920    6.5910 C.3    78  DG78        0.1746
   1581  O4'       24.8450   -7.2800    5.3840 O.3    78  DG78       -0.3327
   1582  C3'       26.9940   -6.8280    6.1720 C.3    78  DG78        0.1558
   1583  O3'       27.8830   -6.9390    7.2630 O.3    78  DG78       -0.3138
   1584  C2'       27.1060   -7.9650    5.1700 C.3    78  DG78        0.0865
   1585  C1'       25.7560   -7.8420    4.4650 C.3    78  DG78        0.2094
   1586  N9        25.7550   -6.9650    3.4070 N.ar   78  DG78       -0.2713
   1587  C8        25.2980   -5.6730    3.5070 C.ar   78  DG78        0.1816
   1588  N7        25.3810   -5.0090    2.3870 N.ar   78  DG78       -0.2173
   1589  C5        25.9230   -5.9120    1.4920 C.ar   78  DG78        0.1748
   1590  C6        26.2490   -5.7680    0.1180 C.ar   78  DG78        0.3023
   1591  O6        26.1140   -4.7700   -0.6000 O.2    78  DG78       -0.2633
   1592  N1        26.7810   -6.9380   -0.4160 N.ar   78  DG78       -0.1709
   1593  C2        26.9760   -8.1030    0.2870 C.ar   78  DG78        0.2606
   1594  N2        27.5010   -9.1270   -0.4000 N.pl3  78  DG78       -0.0859
   1595  N3        26.6790   -8.2520    1.5630 N.ar   78  DG78       -0.1918
   1596  C4        26.1610   -7.1280    2.1020 C.ar   78  DG78        0.1722
   1597  P         29.1300   -6.1120    7.2720 P.3    79  DA79        0.2141
   1598  OP1       29.6720   -6.1730    8.6490 O.3    79  DA79       -0.4373
   1599  OP2       28.6780   -4.8190    6.7050 O.2    79  DA79       -0.5172
   1600  O5'       30.2280   -6.6410    6.2300 O.3    79  DA79       -0.3114
   1601  C5'       30.6570   -7.9950    6.2720 C.3    79  DA79        0.1812
   1602  C4'       30.9030   -8.5630    4.8940 C.3    79  DA79        0.1775
   1603  O4'       29.8440   -8.1610    3.9860 O.3    79  DA79       -0.3326
   1604  C3'       32.1770   -8.1180    4.1950 C.3    79  DA79        0.1859
   1605  O3'       33.3050   -8.8520    4.6370 O.3    79  DA79       -0.2203
   1606  C2'       31.8510   -8.3400    2.7230 C.3    79  DA79        0.0894
   1607  C1'       30.3530   -8.0330    2.6740 C.3    79  DA79        0.2095
   1608  N9        30.0430   -6.7560    2.1750 N.ar   79  DA79       -0.2714
   1609  C8        29.5250   -5.7560    2.9560 C.ar   79  DA79        0.1815
   1610  N7        29.1660   -4.6900    2.2820 N.ar   79  DA79       -0.2193
   1611  C5        29.4680   -5.0110    0.9680 C.ar   79  DA79        0.1518
   1612  C6        29.3240   -4.3000   -0.2370 C.ar   79  DA79        0.1919
   1613  N6        28.8170   -3.0680   -0.3120 N.pl3  79  DA79       -0.1054
   1614  N1        29.7250   -4.9080   -1.3740 N.ar   79  DA79       -0.2040
   1615  C2        30.2330   -6.1430   -1.2980 C.ar   79  DA79        0.2016
   1616  N3        30.4170   -6.9120   -0.2270 N.ar   79  DA79       -0.2048
   1617  C4        30.0100   -6.2790    0.8870 C.ar   79  DA79        0.1691
   1618  P         36.1040   -8.2630    3.9960 P.3    80  DA80        0.5411
   1619  OP1       37.3360   -9.0830    3.8830 O.2    80  DA80       -0.2272
   1620  OP2       36.1900   -6.8400    4.4410 O.2    80  DA80       -0.2272
   1621  O5'       35.3520   -8.2940    2.5980 O.3    80  DA80       -0.2722
   1622  C5'       35.0790   -9.5280    1.9390 C.3    80  DA80        0.1851
   1623  C4'       34.5110   -9.2560    0.5710 C.3    80  DA80        0.1776
   1624  O4'       33.1330   -8.8120    0.6920 O.3    80  DA80       -0.3326
   1625  C3'       35.2010   -8.1150   -0.1580 C.3    80  DA80        0.1859
   1626  O3'       36.3860   -8.5520   -0.8010 O.3    80  DA80       -0.2203
   1627  C2'       34.1310   -7.6690   -1.1430 C.3    80  DA80        0.0894
   1628  C1'       32.8610   -7.8320   -0.3010 C.3    80  DA80        0.2095
   1629  N9        32.9190   -6.5010   -0.2170 N.ar   80  DA80       -0.2714
   1630  C8        33.0250   -5.9600    1.0380 C.ar   80  DA80        0.1815
   1631  N7        32.6670   -4.6990    1.1010 N.ar   80  DA80       -0.2193
   1632  C5        32.3020   -4.3920   -0.2000 C.ar   80  DA80        0.1518
   1633  C6        31.8270   -3.2100   -0.7950 C.ar   80  DA80        0.1919
   1634  N6        31.6320   -2.0720   -0.1250 N.pl3  80  DA80       -0.1054
   1635  N1        31.5580   -3.2390   -2.1180 N.ar   80  DA80       -0.2040
   1636  C2        31.7530   -4.3800   -2.7880 C.ar   80  DA80        0.2016
   1637  N3        32.1930   -5.5530   -2.3400 N.ar   80  DA80       -0.2048
   1638  C4        32.4530   -5.4910   -1.0230 C.ar   80  DA80        0.1691
@<TRIPOS>BOND
     1  1475  1474    2
     2  1478  1479    1
     3  1478  1477    1
     4  1462  1474    1
     5  1462  1461    1
     6  1474  1477    1
     7  1474  1476    1
     8  1479  1480    1
     9  1479  1481    1
    10  1496  1495    2
    11   519   518    2
    12  1482  1481    1
    13  1482  1495    1
    14   499   498    2
    15   506   518    1
    16   506   505    1
    17   502   503    1
    18   502   501    1
    19  1480  1484    1
    20  1459  1458    1
    21  1459  1461    1
    22  1459  1460    1
    23  1458  1457    1
    24   522   523    1
    25   522   521    1
    26   503   505    1
    27   503   504    1
    28  1481  1483    1
    29  1461  1463    1
    30   271   270    2
    31  1495  1497    1
    32  1495  1498    1
    33   518   521    1
    34   518   520    1
    35   487   498    1
    36   487   486    1
    37  1463  1464    1
    38   523   524    1
    39   523   525    1
    40   505   507    1
    41  1499  1498    1
    42  1499  1500    1
    43  1460  1464    1
    44   498   501    1
    45   498   500    1
    46   524   528    1
    47  1483  1484    1
    48  1455  1454    2
    49  1484  1485    1
    50   256   270    1
    51   256   255    1
    52   504   508    1
    53  1464  1465    1
    54   484   486    1
    55   484   483    1
    56   484   485    1
    57  1457  1454    1
    58   488   486    1
    59   488   489    1
    60   507   508    1
    61  1443  1454    1
    62  1443  1442    1
    63   270   273    1
    64   270   272    1
    65   274   273    1
    66   274   275    1
    67   253   252    1
    68   253   255    1
    69   253   254    1
    70   252   251    1
    71  1454  1456    1
    72   483   482    1
    73   291   290    2
    74  1094  1093    2
    75  1074  1073    2
    76   508   509    1
    77   526   525    1
    78   526   539    1
    79  1500  1501    1
    80  1500  1502    1
    81   485   489    1
    82   255   257    1
    83   525   527    1
    84  1444  1442    1
    85  1444  1445    1
    86   489   490    1
    87   528   527    1
    88   528   529    1
    89   249   248    2
    90  1485  1486   ar
    91  1485  1494   ar
    92  1467  1466    2
    93   482   479    1
    94  1486  1487   ar
    95  1442  1440    1
    96   254   258    1
    97   257   258    1
    98  1501  1505    1
    99  1465  1466   ar
   100  1465  1472   ar
   101   275   277    1
   102   275   276    1
   103  1440  1441    1
   104  1440  1439    1
   105   540   539    2
   106   290   278    1
   107   292   278    1
   108  1077  1076    1
   109  1077  1078    1
   110   251   248    1
   111   476   475    1
   112  1445  1441    1
   113  1445  1446    1
   114   530   529   ar
   115   530   531   ar
   116  1466  1468   ar
   117  1515  1503    1
   118  1515  1514    1
   119   492   491    2
   120  1073  1062    1
   121  1073  1076    1
   122  1073  1075    1
   123   539   541    1
   124   539   542    1
   125  1062  1061    1
   126   529   538   ar
   127  1093  1081    1
   128  1093  1095    1
   129  1093  1096    1
   130   258   259    1
   131   234   248    1
   132   234   233    1
   133  1503  1502    1
   134   248   250    1
   135  1502  1504    1
   136  1081  1080    1
   137  1448  1447    2
   138   509   516   ar
   139   509   510   ar
   140  1439  1438    1
   141  1494  1493   ar
   142  1494  1488   ar
   143   277   279    1
   144  1472  1471   ar
   145   480   479    2
   146   466   467    1
   147   466   464    1
   148   276   280    1
   149   490   491   ar
   150   490   497   ar
   151   465   479    1
   152   465   464    1
   153  1078  1080    1
   154  1078  1079    1
   155   479   481    1
   156  1487  1488   ar
   157  1493  1492   ar
   158   516   515   ar
   159   235   233    1
   160   235   236    1
   161   477   475   ar
   162   477   478   ar
   163   491   493   ar
   164  1505  1504    1
   165  1505  1506    1
   166   475   474   ar
   167   531   532   ar
   168   467   463    1
   169   467   468    1
   170  1432  1431    1
   171   511   510    2
   172   245   244    1
   173  1097  1096    1
   174  1097  1098    1
   175   293   294    1
   176   233   231    1
   177  1058  1059    1
   178  1058  1057    1
   179  1080  1082    1
   180  1488  1489   ar
   181   464   462    1
   182  1514  1516    1
   183  1514  1517    1
   184  1446  1447   ar
   185  1446  1453   ar
   186  1513  1506   ar
   187  1513  1512   ar
   188  1059  1061    1
   189  1059  1060    1
   190   510   512   ar
   191  1468  1469   ar
   192   538   532   ar
   193   538   537   ar
   194  1061  1063    1
   195  1447  1449   ar
   196   462   463    1
   197   462   461    1
   198   542   543    1
   199   543   544    1
   200   497   496   ar
   201   294   295    1
   202   259   260   ar
   203   259   269   ar
   204   783   782    2
   205  1506  1507   ar
   206   279   280    1
   207  1438  1435    1
   208  1079  1083    1
   209  1471  1469   ar
   210  1471  1473    1
   211   246   244   ar
   212   246   247   ar
   213   280   281    1
   214   231   232    1
   215   231   230    1
   216   532   533   ar
   217   236   232    1
   218   236   237    1
   219  1492  1491   ar
   220   478   468   ar
   221   478   471   ar
   222  1063  1064    1
   223   537   536   ar
   224   762   761    2
   225   515   517    1
   226   515   513   ar
   227   244   243   ar
   228  1055  1054    2
   229   468   469   ar
   230  1512  1510   ar
   231   474   472   ar
   232   310   309    2
   233   493   494   ar
   234  1517  1518    1
   235   260   261   ar
   236  1469  1470    2
   237  1431  1433   ar
   238  1431  1430   ar
   239  1116  1115    2
   240   765   766    1
   241   765   764    1
   242  1082  1083    1
   243  1436  1435    2
   244   268   269   ar
   245   268   266   ar
   246   769   782    1
   247   769   768    1
   248   288   281   ar
   249   288   287   ar
   250  1453  1452   ar
   251  1057  1054    1
   252  1489  1491   ar
   253  1489  1490    1
   254  1433  1434   ar
   255   269   262   ar
   256  1098  1100    1
   257  1098  1099    1
   258  1060  1064    1
   259   461   460    1
   260  1449  1450   ar
   261   512   513   ar
   262   544   545    1
   263   544   546    1
   264   766   768    1
   265   766   767    1
   266   545   549    1
   267  1311  1310    2
   268   782   784    1
   269   782   785    1
   270   289   287    1
   271   496   494   ar
   272   311   309    1
   273   281   282   ar
   274  1083  1084    1
   275   247   237   ar
   276   247   240   ar
   277  1435  1421    1
   278  1435  1437    1
   279   558   556    1
   280  1507  1508    2
   281  1507  1509   ar
   282   237   238   ar
   283   230   229    1
   284  1422  1423    1
   285  1422  1420    1
   286  1054  1040    1
   287  1054  1056    1
   288  1101  1115    1
   289  1101  1100    1
   290   295   297    1
   291   295   296    1
   292  1064  1065    1
   293   298   309    1
   294   298   297    1
   295   513   514    2
   296   450   449    2
   297  1117  1115    1
   298  1115  1118    1
   299   533   534    1
   300   533   535   ar
   301   536   535   ar
   302   243   241   ar
   303   748   761    1
   304   748   747    1
   305   494   495    1
   306   761   764    1
   307   761   763    1
   308  1421  1420    1
   309   309   312    1
   310  1430  1428   ar
   311  1040  1039    1
   312   471   472   ar
   313   471   470   ar
   314   287   285   ar
   315   768   770    1
   316  1510  1509   ar
   317  1510  1511    1
   318  1100  1102    1
   319   472   473    2
   320   469   470   ar
   321  1099  1103    1
   322   557   556   ar
   323   557   550   ar
   324   297   299    1
   325   267   266    1
   326   266   265   ar
   327  1518  1519    1
   328   261   262   ar
   329  1452  1450   ar
   330   786   785    1
   331   786   787    1
   332  1091  1084   ar
   333  1091  1090   ar
   334  1450  1451    1
   335   767   771    1
   336   556   554   ar
   337   262   263   ar
   338  1423  1424    1
   339  1423  1419    1
   340   460   457    1
   341   229   226    1
   342  1434  1424   ar
   343  1434  1427   ar
   344  1420  1418    1
   345  1084  1085   ar
   346   803   802    2
   347   296   300    1
   348   240   241   ar
   349   240   239   ar
   350  1297  1310    1
   351  1297  1296    1
   352  1310  1313    1
   353  1310  1312    1
   354  1314  1313    1
   355  1314  1315    1
   356  1331  1330    2
   357   546   547    1
   358   546   548    1
   359   549   550    1
   360   549   548    1
   361   745   747    1
   362   745   744    1
   363   745   746    1
   364   238   239   ar
   365   282   283    2
   366   282   284   ar
   367   449   451   ar
   368   449   448   ar
   369   241   242    2
   370   227   226    2
   371   770   771    1
   372   550   551   ar
   373  1092  1090    1
   374   308   307   ar
   375   308   301   ar
   376  1065  1072   ar
   377  1065  1066   ar
   378   747   749    1
   379   451   452   ar
   380  1520  1519    1
   381  1520  1524    1
   382   744   743    1
   383  1519  1521    1
   384   547   559    1
   385   307   305   ar
   386   446   447    1
   387   446   444    1
   388  1041  1039    1
   389  1041  1042    1
   390  1424  1425   ar
   391   749   750    1
   392   312   313    1
   393  1039  1037    1
   394  1428  1427   ar
   395  1428  1429    2
   396  1090  1088   ar
   397  1118  1119    1
   398  1072  1071   ar
   399   771   772    1
   400  1418  1419    1
   401  1418  1417    1
   402   285   284   ar
   403   285   286    2
   404  1105  1104   ar
   405  1105  1106   ar
   406   265   263   ar
   407  1102  1103    1
   408  1532  1531   ar
   409  1532  1525   ar
   410  1103  1104    1
   411  1067  1066    2
   412   554   555    2
   413   554   553   ar
   414   787   789    1
   415   787   788    1
   416  1427  1426   ar
   417  1531  1529   ar
   418   223   224   ar
   419   223   222   ar
   420  1119  1120    1
   421  1315  1317    1
   422  1315  1316    1
   423   226   228    1
   424   226   213    1
   425   263   264    2
   426   299   300    1
   427  1330  1318    1
   428  1330  1332    1
   429  1330  1333    1
   430  1318  1317    1
   431   790   802    1
   432   790   789    1
   433   746   750    1
   434  1294  1296    1
   435  1294  1295    1
   436  1294  1293    1
   437  1037  1036    1
   438  1037  1038    1
   439   447   448    1
   440   447   443    1
   441   458   457    2
   442  1066  1068   ar
   443   300   301    1
   444   313   314    1
   445  1085  1086    2
   446  1085  1087   ar
   447  1296  1298    1
   448   457   445    1
   449   457   459    1
   450   224   225   ar
   451   802   804    1
   452   802   805    1
   453   750   751    1
   454   448   455   ar
   455   551   553   ar
   456   551   552    2
   457   445   444    1
   458   301   302   ar
   459  1104  1114   ar
   460  1106  1107   ar
   461   453   452    2
   462   452   454   ar
   463   214   212    1
   464   214   215    1
   465   741   740    2
   466   561   559    2
   467   222   220   ar
   468   789   791    1
   469  1295  1299    1
   470  1524  1525    1
   471  1524  1523    1
   472   444   442    1
   473   743   740    1
   474   434   433    1
   475  1042  1038    1
   476  1042  1043    1
   477   213   212    1
   478   305   306    1
   479   305   304   ar
   480  1293  1292    1
   481  1317  1319    1
   482  1525  1526   ar
   483   788   792    1
   484  1425  1426   ar
   485   559   560    1
   486   559   562    1
   487  1521  1522    1
   488  1521  1523    1
   489  1071  1069   ar
   490   729   740    1
   491   729   728    1
   492  1036  1035    1
   493  1298  1299    1
   494  1316  1320    1
   495   322   321   ar
   496   322   323   ar
   497  1051  1050    1
   498  1088  1087   ar
   499  1088  1089    2
   500   772   773   ar
   501   772   781   ar
   502  1299  1300    1
   503  1417  1416    1
   504  1529  1530    1
   505  1529  1528   ar
   506   321   320   ar
   507  1522  1533    1
   508  1052  1050   ar
   509  1052  1053   ar
   510  1535  1533    2
   511   773   774   ar
   512   801   799    1
   513    61    60    2
   514   432   433   ar
   515   432   430   ar
   516  1409  1408    2
   517   730   728    1
   518   730   731    1
   519  1333  1334    1
   520  1068  1069   ar
   521  1334  1335    1
   522   212   210    1
   523   443   442    1
   524  1120  1121    1
   525  1120  1122    1
   526   225   216   ar
   527   225   219   ar
   528   740   742    1
   529   805   806    1
   530   455   454   ar
   531  1533  1534    1
   532  1533  1536    1
   533   215   216    1
   534   215   211    1
   535   992   991    2
   536   454   456    1
   537   433   435   ar
   538   726   728    1
   539   726   727    1
   540   726   725    1
   541  1050  1049   ar
   542   302   304   ar
   543   302   303    2
   544   442   441    1
   545   314   315    1
   546   314   316    1
   547  1407  1408   ar
   548  1407  1405   ar
   549   751   760   ar
   550   751   752   ar
   551   979   991    1
   552   979   978    1
   553  1114  1107   ar
   554  1114  1113   ar
   555  1107  1108   ar
   556  1069  1070    1
   557   220   219   ar
   558   220   221    1
   559    42    41    2
   560   431   430    2
   561  1043  1053   ar
   562  1043  1044   ar
   563   800   799   ar
   564   800   793   ar
   565  1416  1413    1
   566  1319  1320    1
   567   315   319    1
   568    82    81    2
   569  1121  1125    1
   570  1033  1032    2
   571   325   324    1
   572   759   760   ar
   573   759   758   ar
   574  1526  1528   ar
   575  1526  1527    2
   576  1053  1046   ar
   577  1406  1405    2
   578   976   975    1
   579   976   978    1
   580   976   977    1
   581  1035  1032    1
   582   994   991    1
   583   994   995    1
   584   791   792    1
   585  1408  1410   ar
   586  1292  1289    1
   587   216   217   ar
   588   806   807    1
   589   562   563    1
   590   430   429   ar
   591  1636  1637   ar
   592  1636  1635   ar
   593  1136  1134    2
   594   792   793    1
   595   975   974    1
   596  1320  1321    1
   597  1133  1132   ar
   598  1133  1126   ar
   599  1132  1130   ar
   600   731   727    1
   601   731   732    1
   602   219   218   ar
   603  1354  1352    2
   604   781   780   ar
   605   781   775   ar
   606   799   797   ar
   607   323   324   ar
   608   323   329   ar
   609  1290  1289    1
   610  1290  1277    1
   611   725   724    1
   612   960   961    1
   613   960   958    1
   614   991   993    1
   615  1122  1123    1
   616  1122  1124    1
   617  1405  1404   ar
   618   316   317    1
   619   316   318    1
   620   332   330    2
   621   760   754   ar
   622  1123  1134    1
   623   780   779   ar
   624   320   319    1
   625   320   329   ar
   626   210   211    1
   627   210   209    1
   628  1353  1352    1
   629  1308  1309   ar
   630  1308  1307   ar
   631   331   330    1
   632   774   775   ar
   633  1300  1309   ar
   634  1300  1301   ar
   635  1637  1638   ar
   636   978   980    1
   637   793   794   ar
   638   752   753   ar
   639   996   995    1
   640   996   997    1
   641   996   998    1
   642    60    49    1
   643    60    62    1
   644    60    63    1
   645  1536  1537    1
   646   576   577   ar
   647   576   574   ar
   648   435   436   ar
   649   324   326   ar
   650  1135  1134    1
   651   977   981    1
   652   317   330    1
   653  1113  1111   ar
   654  1049  1047   ar
   655   964   981    1
   656   964   963    1
   657  1335  1337    1
   658  1335  1336    1
   659  1635  1633   ar
   660  1387  1386    2
   661   563   564    1
   662  1134  1137    1
   663  1044  1045   ar
   664   980   981    1
   665   972   971    2
   666   959   958    1
   667   959   971    1
   668  1032  1034    1
   669  1032  1019    1
   670    45    46    1
   671    45    44    1
   672   961   957    1
   673   961   962    1
   674  1352  1338    1
   675  1352  1355    1
   676  1278  1279    1
   677  1278  1276    1
   678   997  1001    1
   679   945   944    2
   680  1282  1281    2
   681   734   733    2
   682   758   757   ar
   683   202   201    1
   684    49    48    1
   685  1328  1321   ar
   686  1328  1327   ar
   687  1108  1109    2
   688  1108  1110   ar
   689   319   318    1
   690   577   570   ar
   691   575   574    1
   692   330   333    1
   693  1289  1291    1
   694   441   440    1
   695  1309  1303   ar
   696  1046  1047   ar
   697  1046  1045   ar
   698  1338  1337    1
   699   775   776   ar
   700   999   998    1
   701   999  1011    1
   702   329   328   ar
   703   217   218   ar
   704  1410  1412    1
   705  1410  1411   ar
   706    41    27    1
   707    41    44    1
   708    41    43    1
   709  1321  1322   ar
   710  1125  1126    1
   711  1125  1124    1
   712   724   721    1
   713   200   201   ar
   714   200   198   ar
   715   958   956    1
   716  1126  1127   ar
   717   565   564    1
   718   565   569    1
   719   981   982    1
   720   429   436   ar
   721   429   428   ar
   722    81    68    1
   723    81    84    1
   724    81    83    1
   725   574   573   ar
   726  1277  1276    1
   727  1307  1306   ar
   728  1413  1414    2
   729  1413  1415    1
   730  1413  1401    1
   731  1279  1275    1
   732  1279  1280    1
   733  1130  1131    1
   734  1130  1129   ar
   735  1402  1403    1
   736  1402  1400    1
   737   826   824    2
   738   440   437    1
   739   199   198    2
   740   974   971    1
   741  1546  1545   ar
   742  1546  1547   ar
   743  1337  1339    1
   744   956   957    1
   745   956   955    1
   746  1404  1411   ar
   747  1404  1403    1
   748  1537  1538    1
   749   436   426   ar
   750  1614  1615   ar
   751  1614  1612   ar
   752   807   808    1
   753   807   809    1
   754   929   928   ar
   755   929   930   ar
   756  1329  1327    1
   757  1301  1302   ar
   758  1545  1544   ar
   759  1047  1048    2
   760  1615  1616   ar
   761   732   733   ar
   762   732   739   ar
   763   998  1000    1
   764    27    26    1
   765    46    48    1
   766    46    47    1
   767   797   798    2
   768   797   796   ar
   769    64    63    1
   770    64    65    1
   771   928   926   ar
   772  1336  1340    1
   773   201   203   ar
   774  1012  1011    2
   775  1001  1000    1
   776  1001  1002    1
   777   971   973    1
   778   754   753   ar
   779   754   755   ar
   780  1627  1628    1
   781  1627  1625    1
   782   963   962   ar
   783   963   965   ar
   784   779   778   ar
   785  1386  1388   ar
   786  1386  1385   ar
   787   808   812    1
   788   714   713    2
   789  1276  1274    1
   790   209   208    1
   791   564   566    1
   792  1274  1275    1
   793  1274  1273    1
   794   198   197   ar
   795  1638  1629   ar
   796  1638  1632   ar
   797   733   735   ar
   798  1020  1018    1
   799  1020  1021    1
   800  1111  1110   ar
   801  1111  1112    1
   802  1327  1325   ar
   803   570   569    1
   804   570   571   ar
   805   962   969   ar
   806   814   815   ar
   807   814   813   ar
   808   794   796   ar
   809   794   795    2
   810   409   408    2
   811  1019  1018    1
   812    48    50    1
   813  1403  1399    1
   814    68    67    1
   815   326   327   ar
   816  1388  1389   ar
   817    84    85    1
   818  1281  1280   ar
   819  1281  1283   ar
   820   944   946   ar
   821   944   943   ar
   822  1626  1625    1
   823  1633  1632   ar
   824  1633  1634    1
   825   208   205    1
   826   815   816   ar
   827  1011  1014    1
   828  1011  1013    1
   829  1018  1016    1
   830   722   721    2
   831   573   571   ar
   832   825   824    1
   833   710   711    1
   834   710   708    1
   835  1539  1538    1
   836  1539  1543    1
   837   757   755   ar
   838  1591  1590    2
   839   809   810    1
   840   809   811    1
   841   941   942    1
   842   941   939    1
   843   569   568    1
   844  1137  1138    1
   845  1263  1262    2
   846  1401  1400    1
   847   428   427   ar
   848   824   810    1
   849   824   827    1
   850  1400  1398    1
   851  1280  1287   ar
   852  1342  1343   ar
   853  1342  1341   ar
   854  1355  1356    1
   855  1592  1590   ar
   856  1592  1593   ar
   857   946   947   ar
   858  1303  1302   ar
   859  1303  1304   ar
   860   328   327   ar
   861  1594  1593    1
   862   776   778   ar
   863   776   777    1
   864  1127  1129   ar
   865  1127  1128    2
   866   571   572    2
   867  1549  1548    2
   868  1322  1323    2
   869  1322  1324   ar
   870   930   931   ar
   871   333   334    1
   872   721   709    1
   873   721   723    1
   874  1613  1612    1
   875  1628  1629    1
   876  1628  1624    1
   877   942   943    1
   878   942   938    1
   879   739   738   ar
   880   203   204   ar
   881  1612  1611   ar
   882  1574  1572    1
   883  1616  1617   ar
   884  1029  1030   ar
   885  1029  1028   ar
   886  1629  1630   ar
   887  1547  1548   ar
   888  1547  1554   ar
   889  1538  1540    1
   890  1632  1631   ar
   891   755   756    1
   892  1014  1015    1
   893  1306  1304   ar
   894   982   989   ar
   895   982   983   ar
   896   426   427   ar
   897   426   425    1
   898    65    67    1
   899    65    66    1
   900  1625  1623    1
   901  1385  1384   ar
   902  1385  1392   ar
   903  1030  1031   ar
   904   709   708    1
   905   965   966   ar
   906   410   408   ar
   907   410   411   ar
   908   955   954    1
   909   439   437    2
   910  1544  1543    1
   911  1544  1554   ar
   912   926   927    1
   913   926   925   ar
   914  1384  1383   ar
   915  1395  1393    1
   916   437   438    1
   917   437   423    1
   918   389   388    2
   919    67    69    1
   920   711   712    1
   921   711   707    1
   922    47    51    1
   923   408   407   ar
   924   197   204   ar
   925   197   196   ar
   926  1340  1339    1
   927  1340  1341    1
   928   984   983    2
   929  1571  1570    2
   930   713   712   ar
   931   713   715   ar
   932    26    24    1
   933    26    28    1
   934  1273  1272    1
   935  1590  1589   ar
   936   943   950   ar
   937   566   568    1
   938   566   567    1
   939  1343  1344   ar
   940   969   968   ar
   941   424   422    1
   942   424   425    1
   943  1151  1152   ar
   944  1151  1149   ar
   945   812   813    1
   946   812   811    1
   947   813   823   ar
   948    50    51    1
   949   954   951    1
   950  1283  1284   ar
   951  1389  1390    1
   952  1389  1391   ar
   953  1548  1550   ar
   954   735   736   ar
   955    85    86    1
   956  1593  1595   ar
   957   204   194   ar
   958  1138  1139    1
   959  1021  1017    1
   960  1021  1022    1
   961  1543  1542    1
   962  1373  1371    2
   963   708   706    1
   964  1341  1351   ar
   965  1325  1324   ar
   966  1325  1326    2
   967   104   103    2
   968  1304  1305    1
   969   989   988   ar
   970    24    23    1
   971    24    25    1
   972  1150  1149    1
   973   423   422    1
   974   206   205    2
   975   412   411    1
   976  1356  1357    1
   977   334   335    1
   978  1399  1398    1
   979   205   207    1
   980   205   191    1
   981    28    29    1
   982  1002  1009   ar
   983  1002  1003   ar
   984   983   985   ar
   985  1623  1624    1
   986  1623  1622    1
   987  1028  1026   ar
   988  1262  1264   ar
   989  1262  1261   ar
   990    23    22    1
   991   368   367    1
   992   422   420    1
   993   816   823   ar
   994   816   817   ar
   995  1554  1553   ar
   996  1009  1008   ar
   997   712   719   ar
   998  1016  1015    1
   999  1016  1017    1
  1000  1557  1555    2
  1001   940   939    1
  1002   940   951    1
  1003   938   937    1
  1004  1259  1260    1
  1005  1259  1257    1
  1006   706   707    1
  1007   706   705    1
  1008   939   937    1
  1009   411   413   ar
  1010  1152  1145   ar
  1011   425   421    1
  1012  1540  1542    1
  1013  1540  1541    1
  1014  1398  1397    1
  1015   931   925   ar
  1016   931   922   ar
  1017   947   948    1
  1018   947   949   ar
  1019   392   390    1
  1020  1287  1286   ar
  1021   196   195   ar
  1022  1155  1153    2
  1023  1617  1611   ar
  1024  1617  1608   ar
  1025  1392  1391   ar
  1026  1392  1382   ar
  1027   715   716   ar
  1028  1031  1022   ar
  1029  1031  1025   ar
  1030   827   828    1
  1031    51    52    1
  1032  1264  1265   ar
  1033  1611  1610   ar
  1034   738   736   ar
  1035  1149  1148   ar
  1036   966   968   ar
  1037   966   967    2
  1038  1383  1382   ar
  1039   567   578    1
  1040  1630  1631   ar
  1041   105   103    1
  1042  1570  1572   ar
  1043  1570  1569   ar
  1044  1572  1573   ar
  1045   925   924   ar
  1046   937   936    1
  1047    66    70    1
  1048   818   817    2
  1049   968   970    1
  1050   388   390   ar
  1051   388   387   ar
  1052    20    19    2
  1053  1369  1370   ar
  1054  1369  1367   ar
  1055  1169  1168    1
  1056   354   352    2
  1057   353   352    1
  1058   192   193    1
  1059   192   190    1
  1060   823   822   ar
  1061   736   737    1
  1062   407   406   ar
  1063   407   414   ar
  1064   905   904    2
  1065  1272  1269    1
  1066  1260  1261    1
  1067  1260  1256    1
  1068  1022  1023   ar
  1069    86    88    1
  1070    86    87    1
  1071  1393  1394    2
  1072   194   193    1
  1073   194   195   ar
  1074   178   177    1
  1075  1004  1003    2
  1076   103    89    1
  1077   103   106    1
  1078   950   949   ar
  1079    69    70    1
  1080   817   819   ar
  1081   343   342   ar
  1082   343   344   ar
  1083   837   836   ar
  1084   837   838   ar
  1085  1589  1596   ar
  1086  1589  1588   ar
  1087  1344  1351   ar
  1088  1344  1345   ar
  1089  1003  1005   ar
  1090   580   578    2
  1091   193   189    1
  1092  1595  1596   ar
  1093   365   366   ar
  1094   365   364   ar
  1095   951   953    2
  1096   951   952    1
  1097  1284  1286   ar
  1098  1284  1285    2
  1099  1550  1551   ar
  1100  1370  1363   ar
  1101    89    88    1
  1102   342   341   ar
  1103  1261  1268   ar
  1104    22    19    1
  1105  1382  1381    1
  1106  1351  1350   ar
  1107  1026  1025   ar
  1108  1026  1027    1
  1109    25    29    1
  1110  1371  1372    1
  1111  1371  1360    1
  1112  1371  1374    1
  1113   906   904   ar
  1114   906   907   ar
  1115  1396  1397    1
  1116  1396  1379    1
  1117   988   990    1
  1118   988   986   ar
  1119  1008  1010    1
  1120  1008  1006   ar
  1121   390   391   ar
  1122  1541  1555    1
  1123  1139  1141    1
  1124  1139  1140    1
  1125   406   405   ar
  1126   840   839    2
  1127   191   190    1
  1128  1555  1556    1
  1129  1555  1558    1
  1130  1368  1367    1
  1131    29    30    1
  1132  1258  1257    1
  1133  1258  1269    1
  1134   352   338    1
  1135   352   355    1
  1136  1025  1024   ar
  1137  1286  1288    1
  1138  1357  1359    1
  1139  1357  1358    1
  1140   367   366   ar
  1141   367   369   ar
  1142    59    52   ar
  1143    59    58   ar
  1144   985   986   ar
  1145  1553  1551   ar
  1146  1622  1621    1
  1147   695   694    2
  1148   908   907    1
  1149   335   336    1
  1150   335   337    1
  1151  1360  1359    1
  1152   413   414   ar
  1153   836   835   ar
  1154  1359  1361    1
  1155   421   420    1
  1156  1141  1142    1
  1157  1141  1143    1
  1158    52    53   ar
  1159   387   385   ar
  1160  1257  1255    1
  1161  1153  1142    1
  1162  1153  1154    1
  1163  1153  1156    1
  1164   828   829    1
  1165   579   578    1
  1166    72    71   ar
  1167    72    73   ar
  1168  1244  1243    2
  1169  1170  1168   ar
  1170  1170  1171   ar
  1171   420   419    1
  1172  1140  1144    1
  1173   705   704    1
  1174  1596  1586   ar
  1175   922   921    1
  1176   922   923   ar
  1177    70    71    1
  1178   719   718   ar
  1179  1374  1375    1
  1180   904   903   ar
  1181   414   404   ar
  1182   578   581    1
  1183    88    90    1
  1184  1367  1366   ar
  1185  1573  1566   ar
  1186  1145  1144    1
  1187  1145  1146   ar
  1188  1608  1607    1
  1189  1608  1609   ar
  1190   179   177   ar
  1191   179   180   ar
  1192   190   188    1
  1193   679   678    1
  1194   862   861    2
  1195  1227  1228   ar
  1196  1227  1225   ar
  1197  1265  1266    1
  1198  1265  1267   ar
  1199  1168  1167   ar
  1200  1569  1567   ar
  1201   716   717    2
  1202   716   718   ar
  1203    19    21    1
  1204    19     6    1
  1205   366   372   ar
  1206   921   920    1
  1207   921   917    1
  1208  1610  1609   ar
  1209    87    91    1
  1210   884   883    1
  1211   336   340    1
  1212   177   176   ar
  1213  1148  1146   ar
  1214  1551  1552    1
  1215  1588  1587   ar
  1216   924   923   ar
  1217   417   415    2
  1218  1023  1024   ar
  1219  1358  1362    1
  1220  1226  1225    1
  1221   364   363   ar
  1222   337   338    1
  1223   337   339    1
  1224  1378  1380    1
  1225  1378  1379    1
  1226  1378  1376    1
  1227  1256  1255    1
  1228   920   918    1
  1229   936   935    1
  1230  1380  1381    1
  1231   907   909   ar
  1232   106   107    1
  1233   822   820   ar
  1234  1005  1006   ar
  1235   986   987    2
  1236  1621  1618    1
  1237   838   839   ar
  1238   838   845   ar
  1239  1245  1243   ar
  1240  1245  1246   ar
  1241  1269  1270    2
  1242  1269  1271    1
  1243  1345  1346    2
  1244  1345  1347   ar
  1245   346   345    2
  1246  1188  1187    1
  1247  1607  1606    1
  1248  1607  1603    1
  1249  1255  1254    1
  1250   419   418    1
  1251   839   841   ar
  1252    71    80   ar
  1253  1606  1604    1
  1254   848   846    2
  1255  1006  1007    2
  1256   344   345   ar
  1257   344   351   ar
  1258  1228  1229   ar
  1259  1350  1348   ar
  1260   819   820   ar
  1261   369   370   ar
  1262   718   720    1
  1263  1381  1377    1
  1264    73    74   ar
  1265  1144  1143    1
  1266  1363  1362    1
  1267  1363  1364   ar
  1268   341   340    1
  1269   341   351   ar
  1270   859   860   ar
  1271   859   858   ar
  1272  1268  1267   ar
  1273   189   188    1
  1274    58    56   ar
  1275  1243  1242   ar
  1276  1146  1147    2
  1277    30    40   ar
  1278    30    31   ar
  1279   405   404   ar
  1280   847   846    1
  1281  1225  1224   ar
  1282   391   384   ar
  1283  1558  1559    1
  1284   107   108    1
  1285   180   181   ar
  1286   694   696   ar
  1287   694   693   ar
  1288    39    40   ar
  1289    39    37   ar
  1290   124   122    2
  1291   159   158    1
  1292   704   701    1
  1293  1171  1164   ar
  1294  1247  1246    1
  1295    53    54    2
  1296    53    55   ar
  1297   375   373    2
  1298   404   403    1
  1299  1156  1157    1
  1300     6     5    1
  1301   345   347   ar
  1302   677   678   ar
  1303   677   675   ar
  1304  1361  1362    1
  1305   820   821    1
  1306   355   356    1
  1307   829   830    1
  1308   829   831    1
  1309   696   697   ar
  1310   861   860   ar
  1311   861   863   ar
  1312   830   834    1
  1313   835   845   ar
  1314   835   834    1
  1315  1566  1567   ar
  1316  1566  1565    1
  1317   678   680   ar
  1318   385   384   ar
  1319   385   386    2
  1320   340   339    1
  1321   188   187    1
  1322   917   916    1
  1323  1586  1587   ar
  1324  1586  1585    1
  1325   935   932    1
  1326   176   175   ar
  1327   176   182   ar
  1328  1567  1568    2
  1329  1375  1376    1
  1330  1366  1364   ar
  1331  1167  1165   ar
  1332    93    92   ar
  1333    93    94   ar
  1334   831   832    1
  1335   831   833    1
  1336   846   832    1
  1337   846   849    1
  1338  1207  1206    1
  1339   691   692    1
  1340   691   689    1
  1341   903   910   ar
  1342   903   902   ar
  1343    40    33   ar
  1344    90    91    1
  1345  1377  1376    1
  1346  1246  1248   ar
  1347   591   590   ar
  1348   591   592   ar
  1349   356   357    1
  1350    38    37    1
  1351   883   885   ar
  1352   883   882   ar
  1353   372   363   ar
  1354   372   371   ar
  1355    91    92    1
  1356   581   582    1
  1357   351   350   ar
  1358   860   867   ar
  1359   363   362    1
  1360    31    32   ar
  1361   418   415    1
  1362   845   844   ar
  1363   858   857   ar
  1364  1347  1348   ar
  1365   415   416    1
  1366   415   401    1
  1367  1348  1349    1
  1368   909   910   ar
  1369  1364  1365    2
  1370   384   383    1
  1371   175   174   ar
  1372    37    36   ar
  1373  1619  1618    2
  1374   395   393    2
  1375  1187  1189   ar
  1376  1187  1186   ar
  1377   590   589   ar
  1378   885   886   ar
  1379  1603  1602    1
  1380  1618  1620    2
  1381   918   916    1
  1382   918   919    1
  1383   594   593    1
  1384   841   842   ar
  1385    80    74   ar
  1386    80    79   ar
  1387   186   187    1
  1388   186   183    1
  1389  1229  1230   ar
  1390   370   371   ar
  1391   834   833    1
  1392    56    55   ar
  1393    56    57    1
  1394    74    75   ar
  1395   692   693    1
  1396   692   688    1
  1397  1254  1253    1
  1398    92   102   ar
  1399  1561  1565    1
  1400  1561  1560    1
  1401   693   700   ar
  1402   181   182   ar
  1403  1559  1560    1
  1404  1604  1605    1
  1405  1604  1602    1
  1406   676   675    2
  1407   158   160   ar
  1408   158   157   ar
  1409   138   137    1
  1410   910   900   ar
  1411   182   173   ar
  1412  1242  1241    1
  1413  1242  1249   ar
  1414    94    95   ar
  1415   902   901   ar
  1416  1189  1190   ar
  1417   122   123    1
  1418   122   111    1
  1419   122   125    1
  1420   675   674   ar
  1421   358   357    1
  1422   358   362    1
  1423   359   357    1
  1424   359   361    1
  1425   359   360    1
  1426  1164  1165   ar
  1427  1164  1163    1
  1428  1224  1230   ar
  1429  1224  1223   ar
  1430   916   915    1
  1431   863   864   ar
  1432   185   183    2
  1433  1585  1584    1
  1434  1585  1581    1
  1435   582   583    1
  1436   680   681   ar
  1437   403   402    1
  1438   403   399    1
  1439   881   882   ar
  1440   881   880   ar
  1441  1565  1564    1
  1442  1165  1166    2
  1443   919   932    1
  1444   697   698    1
  1445   697   699   ar
  1446   882   888   ar
  1447     5     7    1
  1448     5     3    1
  1449  1157  1158    1
  1450   402   400    1
  1451   108   109    1
  1452   108   110    1
  1453   160   161   ar
  1454   400   401    1
  1455   400   398    1
  1456    33    32   ar
  1457    33    34   ar
  1458   701   702    2
  1459   701   690    1
  1460   701   703    1
  1461  1240  1241    1
  1462  1240  1238    1
  1463   690   689    1
  1464   347   348   ar
  1465  1241  1237    1
  1466   592   593   ar
  1467   592   598   ar
  1468   362   361    1
  1469   373   376    1
  1470   373   360    1
  1471   373   374    1
  1472   120   121   ar
  1473   120   118   ar
  1474   689   687    1
  1475   396   393    1
  1476   396   397    1
  1477     7     8    1
  1478  1206  1205   ar
  1479  1206  1208   ar
  1480  1186  1184   ar
  1481   635   634    2
  1482  1230  1221   ar
  1483   135   136   ar
  1484   135   134   ar
  1485  1602  1601    1
  1486   932   933    2
  1487   932   934    1
  1488  1248  1249   ar
  1489   593   595   ar
  1490  1560  1562    1
  1491  1253  1250    1
  1492   174   173   ar
  1493    36    34   ar
  1494   849   850    1
  1495   121   114   ar
  1496  1174  1172    2
  1497   157   155   ar
  1498   382   383    1
  1499   382   380    1
  1500   350   348   ar
  1501   183   184    1
  1502   183   170    1
  1503   867   857   ar
  1504   867   866   ar
  1505   844   842   ar
  1506    79    78   ar
  1507   857   856    1
  1508  1205  1203   ar
  1509   376   377    1
  1510   145   143    2
  1511   383   379    1
  1512   109   113    1
  1513   842   843    1
  1514   584   583    1
  1515   584   588    1
  1516  1159  1163    1
  1517  1159  1158    1
  1518   393   381    1
  1519   393   394    1
  1520  1584  1582    1
  1521   850   851    1
  1522   173   172    1
  1523   111   110    1
  1524   886   887   ar
  1525   615   614    2
  1526   589   598   ar
  1527   589   588    1
  1528   164   162    2
  1529  1562  1564    1
  1530  1562  1563    1
  1531   399   398    1
  1532   110   112    1
  1533   380   381    1
  1534   380   378    1
  1535   657   656    1
  1536  1581  1580    1
  1537   137   136   ar
  1538   137   139   ar
  1539    75    76    1
  1540    75    77   ar
  1541    34    35    2
  1542   700   699   ar
  1543   348   349    1
  1544   618   616    1
  1545   125   126    1
  1546  1223  1222   ar
  1547   688   687    1
  1548  1577  1575    2
  1549   102    95   ar
  1550   102   101   ar
  1551   901   900   ar
  1552  1163  1162    1
  1553   681   674   ar
  1554   681   671   ar
  1555    95    96   ar
  1556   900   899    1
  1557   119   118    1
  1558  1158  1160    1
  1559   674   673   ar
  1560   397   398    1
  1561     3     4    1
  1562     3     2    1
  1563   583   585    1
  1564   136   142   ar
  1565   134   133   ar
  1566  1190  1183   ar
  1567   161   154   ar
  1568   915   914    1
  1569     8     4    1
  1570     8     9    1
  1571   864   866   ar
  1572   864   865    1
  1573   118   117   ar
  1574   687   686    1
  1575   598   597   ar
  1576  1160  1162    1
  1577  1160  1161    1
  1578   880   879   ar
  1579  1208  1209   ar
  1580   171   169    1
  1581   171   172    1
  1582   914   911    1
  1583   379   378    1
  1584   852   856    1
  1585   852   851    1
  1586   888   887   ar
  1587   888   879   ar
  1588    17    16   ar
  1589    17    18   ar
  1590   634   636   ar
  1591   634   633   ar
  1592  1237  1236    1
  1593  1578  1575    1
  1594  1578  1579    1
  1595   870   868    2
  1596   588   587    1
  1597  1238  1239    1
  1598  1238  1236    1
  1599   155   154   ar
  1600   155   156    2
  1601  1184  1183   ar
  1602  1184  1185    2
  1603   114   113    1
  1604   114   115   ar
  1605    16    15   ar
  1606   636   637   ar
  1607  1582  1580    1
  1608  1582  1583    1
  1609   169   170    1
  1610   169   167    1
  1611   595   596   ar
  1612   856   855    1
  1613  1221  1222   ar
  1614  1221  1220    1
  1615    78    77   ar
  1616  1600  1601    1
  1617  1600  1597    1
  1618   851   853    1
  1619   378   377    1
  1620   172   168    1
  1621   139   140   ar
  1622  1203  1204    2
  1623  1203  1202   ar
  1624   655   656   ar
  1625   655   653   ar
  1626   614   616   ar
  1627   614   613   ar
  1628   113   112    1
  1629  1250  1239    1
  1630  1250  1252    2
  1631  1250  1251    1
  1632  1575  1563    1
  1633  1575  1576    1
  1634  1172  1161    1
  1635  1172  1173    1
  1636  1172  1175    1
  1637   656   658   ar
  1638   154   153    1
  1639   101    99   ar
  1640   143   146    1
  1641   143   144    1
  1642   143   130    1
  1643   853   855    1
  1644   853   854    1
  1645  1183  1182    1
  1646     2     1    1
  1647  1580  1579    1
  1648   585   587    1
  1649   585   586    1
  1650   616   617   ar
  1651    18     9   ar
  1652    18    12   ar
  1653   879   878    1
  1654     9    10   ar
  1655   162   165    1
  1656   162   163    1
  1657   162   151    1
  1658  1599  1597    2
  1659   899   898    1
  1660   899   895    1
  1661   898   896    1
  1662   165   166    1
  1663   126   127    1
  1664  1236  1235    1
  1665    96    97    2
  1666    96    98   ar
  1667   146   147    1
  1668   671   670    1
  1669   671   672   ar
  1670   142   133   ar
  1671   142   141   ar
  1672   133   132    1
  1673   117   115   ar
  1674   673   672   ar
  1675   913   911    2
  1676    15    13   ar
  1677   597   596   ar
  1678  1209  1202   ar
  1679   601   599    2
  1680   115   116    2
  1681  1220  1219    1
  1682  1220  1216    1
  1683   633   632   ar
  1684   633   640   ar
  1685  1175  1176    1
  1686   129   130    1
  1687   129   127    1
  1688   129   131    1
  1689   911   912    1
  1690   911   897    1
  1691   686   685    1
  1692  1583  1597    1
  1693  1597  1598    1
  1694   638   637    1
  1695   637   639   ar
  1696   150   152    1
  1697   150   151    1
  1698   150   148    1
  1699  1202  1201    1
  1700   168   167    1
  1701   669   670    1
  1702   669   667    1
  1703   891   889    2
  1704   670   666    1
  1705   654   653    2
  1706   632   631   ar
  1707   653   652   ar
  1708   140   141   ar
  1709   868   854    1
  1710   868   871    1
  1711   868   869    1
  1712  1219  1217    1
  1713   613   611   ar
  1714   152   153    1
  1715    12    13   ar
  1716    12    11   ar
  1717   896   897    1
  1718   896   894    1
  1719   167   166    1
  1720    10    11   ar
  1721   586   599    1
  1722   685   682    1
  1723    13    14    1
  1724   127   128    1
  1725   153   149    1
  1726    99    98   ar
  1727    99   100    1
  1728   658   659   ar
  1729   128   132    1
  1730   617   610   ar
  1731   895   894    1
  1732   871   872    1
  1733  1182  1178    1
  1734  1182  1181    1
  1735   878   877    1
  1736   878   874    1
  1737   132   131    1
  1738   599   600    1
  1739   599   602    1
  1740  1178  1177    1
  1741   877   875    1
  1742   149   148    1
  1743   147   148    1
  1744  1234  1235    1
  1745  1234  1231    1
  1746   640   639   ar
  1747   640   630   ar
  1748   892   889    1
  1749   892   893    1
  1750  1216  1215    1
  1751  1193  1191    2
  1752   875   876    1
  1753   875   873    1
  1754  1176  1177    1
  1755   894   893    1
  1756   889   876    1
  1757   889   890    1
  1758   631   630   ar
  1759   652   659   ar
  1760   652   651    1
  1761   667   668    1
  1762   667   665    1
  1763  1217  1215    1
  1764  1217  1218    1
  1765   874   873    1
  1766  1201  1200    1
  1767  1201  1197    1
  1768   666   665    1
  1769   611   610   ar
  1770   611   612    2
  1771  1181  1179    1
  1772  1179  1177    1
  1773  1179  1180    1
  1774   610   609    1
  1775   602   603    1
  1776  1233  1231    2
  1777   682   668    1
  1778   682   684    2
  1779   682   683    1
  1780   872   873    1
  1781  1200  1198    1
  1782   630   629    1
  1783  1215  1214    1
  1784  1231  1218    1
  1785  1231  1232    1
  1786  1197  1196    1
  1787   665   664    1
  1788  1212  1210    2
  1789  1213  1214    1
  1790  1213  1210    1
  1791  1191  1194    1
  1792  1191  1180    1
  1793  1191  1192    1
  1794   651   650    1
  1795   651   647    1
  1796  1198  1196    1
  1797  1198  1199    1
  1798  1194  1195    1
  1799   603   604    1
  1800   605   609    1
  1801   605   604    1
  1802   609   608    1
  1803   650   648    1
  1804  1210  1199    1
  1805  1210  1211    1
  1806  1196  1195    1
  1807   629   628    1
  1808   629   625    1
  1809   663   664    1
  1810   663   660    1
  1811   621   619    2
  1812   604   606    1
  1813   606   608    1
  1814   606   607    1
  1815   647   646    1
  1816   648   646    1
  1817   648   649    1
  1818   628   626    1
  1819   625   624    1
  1820   662   660    2
  1821   643   641    2
  1822   660   649    1
  1823   660   661    1
  1824   626   624    1
  1825   626   627    1
  1826   646   645    1
  1827   607   619    1
  1828   619   622    1
  1829   619   620    1
  1830   623   624    1
  1831   623   622    1
  1832   645   644    1
  1833   641   627    1
  1834   641   644    1
  1835   641   642    1
