FB1.pdb
  RxDock  10072008323D
librxdock.so/0.1.0
 59 58  0  0  0  0  0  0  0  0999 V2000
   -2.4793   -2.3751   -2.9927 C   0  0  0  0  0  0
   -3.3295   -2.1753   -4.2450 C   0  0  0  0  0  0
   -2.8185   -1.0032   -5.0991 C   0  0  0  0  0  0
   -1.9846   -1.4504   -6.3256 C   0  0  0  0  0  0
   -0.4320   -1.4588   -6.1025 C   0  0  0  0  0  0
   -0.0938   -2.5726   -5.0848 C   0  0  0  0  0  0
    0.3992   -1.6424   -7.4417 C   0  0  0  0  0  0
   -0.1527   -2.7136   -8.4973 C   0  0  0  0  0  0
   -1.5802   -3.4108   -8.4320 C   0  0  0  0  0  0
   -1.5693   -5.0476   -8.6373 C   0  0  0  0  0  0
   -1.4786   -5.7082   -7.2627 C   0  0  0  0  0  0
   -2.7987   -5.6629   -9.4464 C   0  0  0  0  0  0
   -4.3518   -5.3669   -9.1012 C   0  0  0  0  0  0
   -5.4468   -6.4878   -9.1279 C   0  0  0  0  0  0
   -6.9597   -6.0758   -8.8274 C   0  0  0  0  0  0
   -8.0169   -7.0213   -8.1324 C   0  0  0  0  0  0
   -8.0279   -7.1496   -6.5861 C   0  0  0  0  0  0
   -9.1057   -8.1210   -5.9665 C   0  0  0  0  0  0
   -8.9232   -8.4833   -4.4873 C   0  0  0  0  0  0
   -8.1217   -9.7689   -4.1365 C   0  0  0  0  0  0
   -6.6094   -9.8801   -4.4915 C   0  0  0  0  0  0
   -6.2615   -9.9071   -5.9733 C   0  0  0  0  0  0
   -5.8264   -8.8487   -3.7847 N   0  0  0  0  0  0
   -8.1747   -9.8517   -2.6893 O   0  0  0  0  0  0
  -10.3926   -7.5156   -6.1310 O   0  0  0  0  0  0
   -4.3437   -4.8824   -7.7478 O   0  0  0  0  0  0
   -0.1328   -2.0549   -9.7927 O   0  0  0  0  0  0
   -0.2279   -2.8496  -10.8903 C   0  0  0  0  0  0
    0.6981   -3.3624  -11.4895 O   0  0  0  0  0  0
   -1.6841   -3.0777  -11.1882 C   0  0  0  0  0  0
   -2.5157   -1.7888  -11.0897 C   0  0  0  0  0  0
   -2.6984   -1.1009  -12.4487 C   0  0  0  0  0  0
   -3.5956   -1.9123  -13.3542 C   0  0  0  0  0  0
   -3.6998   -3.1324  -13.2894 O   0  0  0  0  0  0
   -4.2737   -1.1685  -14.2406 O   0  0  0  0  0  0
   -3.8802   -2.2092  -10.5262 C   0  0  0  0  0  0
   -4.5806   -1.4685   -9.8530 O   0  0  0  0  0  0
   -4.2213   -3.4776  -10.7919 O   0  0  0  0  0  0
    0.6850   -0.3336   -8.0781 O   0  0  0  0  0  0
   -0.2537    0.1952   -8.9484 C   0  0  0  0  0  0
   -1.4296   -0.1419   -8.9929 O   0  0  0  0  0  0
    0.3426    1.2684   -9.8686 C   0  0  0  0  0  0
    1.5851    2.0274   -9.3077 C   0  0  0  0  0  0
    2.5048    2.7492  -10.3096 C   0  0  0  0  0  0
    2.9776    1.8562  -11.4202 C   0  0  0  0  0  0
    2.3832    1.6454  -12.4685 O   0  0  0  0  0  0
    4.1703    1.2997  -11.1589 O   0  0  0  0  0  0
    1.2707    3.0223   -8.1837 C   0  0  0  0  0  0
    1.4234    4.2221   -8.3020 O   0  0  0  0  0  0
    0.7074    2.4895   -7.0791 O   0  0  0  0  0  0
   -5.2911   -8.3111   -4.4650 H   0  0  0  0  0  0
   -5.1241   -9.3125   -3.2041 H   0  0  0  0  0  0
   -7.7910  -10.7289   -2.4782 H   0  0  0  0  0  0
  -10.4850   -7.2461   -7.0634 H   0  0  0  0  0  0
   -4.9396   -5.4435   -7.2240 H   0  0  0  0  0  0
   -4.8716   -1.6659  -14.8310 H   0  0  0  0  0  0
   -3.8210   -3.8453  -11.6186 H   0  0  0  0  0  0
    4.3847    1.5185  -10.2275 H   0  0  0  0  0  0
    0.6835    1.5072   -7.0524 H   0  0  0  0  0  0
  1  2  1  0  0  0
  2  3  1  0  0  0
  3  4  1  0  0  0
  4  5  1  0  0  0
  5  6  1  0  0  0
  5  7  1  0  0  0
  7  8  1  0  0  0
  7 39  1  0  0  0
  8  9  1  0  0  0
  8 27  1  0  0  0
  9 10  1  0  0  0
 10 11  1  0  0  0
 10 12  1  0  0  0
 12 13  1  0  0  0
 13 14  1  0  0  0
 13 26  1  0  0  0
 14 15  1  0  0  0
 15 16  1  0  0  0
 16 17  1  0  0  0
 17 18  1  0  0  0
 18 19  1  0  0  0
 18 25  1  0  0  0
 19 20  1  0  0  0
 20 21  1  0  0  0
 20 24  1  0  0  0
 21 22  1  0  0  0
 21 23  1  0  0  0
 23 51  1  0  0  0
 23 52  1  0  0  0
 24 53  1  0  0  0
 25 54  1  0  0  0
 26 55  1  0  0  0
 27 28  1  0  0  0
 28 29  2  0  0  0
 28 30  1  0  0  0
 30 31  1  0  0  0
 31 32  1  0  0  0
 31 36  1  0  0  0
 32 33  1  0  0  0
 33 34  2  0  0  0
 33 35  1  0  0  0
 35 56  1  0  0  0
 36 37  2  0  0  0
 36 38  1  0  0  0
 38 57  1  0  0  0
 39 40  1  0  0  0
 40 41  2  0  0  0
 40 42  1  0  0  0
 42 43  1  0  0  0
 43 44  1  0  0  0
 43 48  1  0  0  0
 44 45  1  0  0  0
 45 46  2  0  0  0
 45 47  1  0  0  0
 47 58  1  0  0  0
 48 49  2  0  0  0
 48 50  1  0  0  0
 50 59  1  0  0  0
M  END
>  <AUTHOR>
    GENERATED BY OPEN BABEL 2.4.1

>  <CHROM.1>
101.11880977,-95.36239581,67.60547269,-41.53502103,11.33995527,-87.15480124
-132.37061242,163.62944848,92.57338941,-51.59909584,-138.36133418,-177.60693512
-124.33654048,-148.63860415,81.66166308,-179.55530261,167.10445298,-92.57596125
50.29711566,64.33779657,-66.03031297,171.59364473,-125.11835285,-89.18933198
44.37422713,95.07236341,69.20057068,150.90231214,-28.57527112,-179.17394590
-27.44057154,19.15869660,-26.56938302,159.80260908,-53.09476925,-114.73065162
86.83239368,8.13851657,8.99275662,-2.68878711,-3.05003947,-8.38994458,-2.67892623
-0.77342252,-1.40064154

>  <COMPND>
    UNNAMED

>  <MASTER>
        0    0    0    0    0    0    0    0  109    0  109    0

>  <Name>
FB1.pdb

>  <RI>
0

>  <Rbt.Current_Directory>
/cluster/tossine/FB1_39T3/p3/1_clust02

>  <Rbt.Executable>
rbdock/0.1.0

>  <Rbt.Library>
librxdock.so/0.1.0

>  <Rbt.Parameter_File>
/cluster/rxdock/data/scripts/dock.prm

>  <Rbt.Receptor>
rx_2.prm

>  <SCORE>
82.748

>  <SCORE.INTER>
39.2501

>  <SCORE.INTER.CONST>
1

>  <SCORE.INTER.POLAR>
-1.04314

>  <SCORE.INTER.REPUL>
0.230085

>  <SCORE.INTER.ROT>
32

>  <SCORE.INTER.VDW>
4.24637

>  <SCORE.INTER.norm>
0.785002

>  <SCORE.INTRA>
42.1938

>  <SCORE.INTRA.DIHEDRAL>
52.912

>  <SCORE.INTRA.DIHEDRAL.0>
47.3121

>  <SCORE.INTRA.POLAR>
0.153585

>  <SCORE.INTRA.POLAR.0>
-1.47808

>  <SCORE.INTRA.REPUL>
0

>  <SCORE.INTRA.REPUL.0>
0

>  <SCORE.INTRA.VDW>
15.2157

>  <SCORE.INTRA.VDW.0>
-2.78316

>  <SCORE.INTRA.norm>
0.843877

>  <SCORE.RESTR>
1.304

>  <SCORE.RESTR.CAVITY>
1.304

>  <SCORE.RESTR.norm>
0.02608

>  <SCORE.SYSTEM>
0

>  <SCORE.SYSTEM.CONST>
0

>  <SCORE.SYSTEM.DIHEDRAL>
0

>  <SCORE.SYSTEM.norm>
0

>  <SCORE.heavy>
50

>  <SCORE.norm>
1.65496

$$$$
