FB1.pdb
  RxDock  10072009153D
librxdock.so/0.1.0
 59 58  0  0  0  0  0  0  0  0999 V2000
    1.4829    1.7170   -5.1107 C   0  0  0  0  0  0
    0.0020    2.0162   -5.3313 C   0  0  0  0  0  0
   -0.7883    0.7467   -5.6889 C   0  0  0  0  0  0
   -0.0503   -0.1794   -6.6875 C   0  0  0  0  0  0
    0.0320   -1.6853   -6.2564 C   0  0  0  0  0  0
    0.3950   -1.7412   -4.7545 C   0  0  0  0  0  0
   -1.2968   -2.5015   -6.5498 C   0  0  0  0  0  0
   -1.9275   -2.3587   -8.0154 C   0  0  0  0  0  0
   -1.1129   -2.4667   -9.3766 C   0  0  0  0  0  0
    0.2271   -1.5089   -9.4678 C   0  0  0  0  0  0
    1.4135   -2.2780   -8.8888 C   0  0  0  0  0  0
    0.6018   -0.9601  -10.9180 C   0  0  0  0  0  0
    1.4087    0.4165  -11.1870 C   0  0  0  0  0  0
    0.8452    1.8168  -10.7651 C   0  0  0  0  0  0
    0.4906    2.0583   -9.2272 C   0  0  0  0  0  0
    1.4749    2.7143   -8.1806 C   0  0  0  0  0  0
    2.1764    4.0544   -8.5266 C   0  0  0  0  0  0
    1.2605    5.3380   -8.5760 C   0  0  0  0  0  0
    1.9855    6.6874   -8.6529 C   0  0  0  0  0  0
    2.7621    7.0340   -9.9549 C   0  0  0  0  0  0
    3.4995    8.3984  -10.0970 C   0  0  0  0  0  0
    3.3248    9.1281  -11.4216 C   0  0  0  0  0  0
    3.1866    9.2858   -8.9608 N   0  0  0  0  0  0
    3.8075    6.0319  -10.0372 O   0  0  0  0  0  0
    0.3964    5.2207   -9.7116 O   0  0  0  0  0  0
    2.6392    0.2721  -10.4581 O   0  0  0  0  0  0
   -2.9451   -3.3909   -8.1222 O   0  0  0  0  0  0
   -2.5133   -4.6754   -8.2171 C   0  0  0  0  0  0
   -1.3548   -5.0447   -8.2446 O   0  0  0  0  0  0
   -3.7110   -5.5841   -8.1806 C   0  0  0  0  0  0
   -4.5082   -5.5630   -9.4945 C   0  0  0  0  0  0
   -4.1586   -4.3570  -10.3759 C   0  0  0  0  0  0
   -5.1503   -4.2016  -11.5054 C   0  0  0  0  0  0
   -5.0208   -4.7381  -12.6004 O   0  0  0  0  0  0
   -6.1939   -3.4179  -11.1961 O   0  0  0  0  0  0
   -4.1545   -6.8666  -10.2236 C   0  0  0  0  0  0
   -4.9788   -7.7295  -10.4848 O   0  0  0  0  0  0
   -2.8523   -7.0050  -10.5085 O   0  0  0  0  0  0
   -1.1540   -3.9208   -6.1436 O   0  0  0  0  0  0
   -2.1044   -4.4620   -5.2939 C   0  0  0  0  0  0
   -3.2773   -4.1145   -5.2495 O   0  0  0  0  0  0
   -1.5255   -5.5638   -4.3966 C   0  0  0  0  0  0
   -2.5660   -6.3768   -3.5653 C   0  0  0  0  0  0
   -3.5379   -5.5967   -2.6612 C   0  0  0  0  0  0
   -2.9409   -4.3341   -2.1100 C   0  0  0  0  0  0
   -1.8559   -3.8626   -2.4216 O   0  0  0  0  0  0
   -3.7450   -3.7319   -1.2206 O   0  0  0  0  0  0
   -3.4045   -7.3655   -4.3849 C   0  0  0  0  0  0
   -4.3354   -7.9896   -3.9152 O   0  0  0  0  0  0
   -3.1108   -7.4225   -5.7009 O   0  0  0  0  0  0
    2.2042    9.5528   -9.0061 H   0  0  0  0  0  0
    3.7030   10.1605   -9.0776 H   0  0  0  0  0  0
    4.3544    6.3083  -10.8026 H   0  0  0  0  0  0
   -0.1741    4.4411   -9.5803 H   0  0  0  0  0  0
    2.4212    0.1774   -9.5157 H   0  0  0  0  0  0
   -6.1642   -3.0164  -10.3065 H   0  0  0  0  0  0
   -2.2797   -6.2692  -10.1778 H   0  0  0  0  0  0
   -3.2843   -2.9159   -0.9322 H   0  0  0  0  0  0
   -2.1792   -7.2113   -5.9325 H   0  0  0  0  0  0
  1  2  1  0  0  0
  2  3  1  0  0  0
  3  4  1  0  0  0
  4  5  1  0  0  0
  5  6  1  0  0  0
  5  7  1  0  0  0
  7  8  1  0  0  0
  7 39  1  0  0  0
  8  9  1  0  0  0
  8 27  1  0  0  0
  9 10  1  0  0  0
 10 11  1  0  0  0
 10 12  1  0  0  0
 12 13  1  0  0  0
 13 14  1  0  0  0
 13 26  1  0  0  0
 14 15  1  0  0  0
 15 16  1  0  0  0
 16 17  1  0  0  0
 17 18  1  0  0  0
 18 19  1  0  0  0
 18 25  1  0  0  0
 19 20  1  0  0  0
 20 21  1  0  0  0
 20 24  1  0  0  0
 21 22  1  0  0  0
 21 23  1  0  0  0
 23 51  1  0  0  0
 23 52  1  0  0  0
 24 53  1  0  0  0
 25 54  1  0  0  0
 26 55  1  0  0  0
 27 28  1  0  0  0
 28 29  2  0  0  0
 28 30  1  0  0  0
 30 31  1  0  0  0
 31 32  1  0  0  0
 31 36  1  0  0  0
 32 33  1  0  0  0
 33 34  2  0  0  0
 33 35  1  0  0  0
 35 56  1  0  0  0
 36 37  2  0  0  0
 36 38  1  0  0  0
 38 57  1  0  0  0
 39 40  1  0  0  0
 40 41  2  0  0  0
 40 42  1  0  0  0
 42 43  1  0  0  0
 43 44  1  0  0  0
 43 48  1  0  0  0
 44 45  1  0  0  0
 45 46  2  0  0  0
 45 47  1  0  0  0
 47 58  1  0  0  0
 48 49  2  0  0  0
 48 50  1  0  0  0
 50 59  1  0  0  0
M  END
>  <AUTHOR>
    GENERATED BY OPEN BABEL 2.4.1

>  <CHROM.1>
-41.92813129,129.92275947,-43.43104956,48.79620528,47.08079329,126.71804277
-51.45787877,-71.42628400,88.19955300,152.79919081,-62.51701863,57.76019914
-61.71385187,94.61582272,50.06320677,70.09464872,168.80374009,68.26234204
62.92626370,179.10855875,-135.68257788,-174.04883410,-67.37222988,-1.35634703
74.11694672,-16.42339352,-167.97537732,117.58904972,-89.53035984,2.68756064
2.56937862,30.28563224,-171.01893282,-54.43448852,-31.72042785,-173.40444190
7.12697704,-178.88199122,29.03738422,-1.05475391,-1.38793017,-7.79088942
-0.42492357,1.06545134,1.80653495

>  <COMPND>
    UNNAMED

>  <MASTER>
        0    0    0    0    0    0    0    0  109    0  109    0

>  <Name>
FB1.pdb

>  <RI>
0

>  <Rbt.Current_Directory>
/cluster/tossine/FB1_39T3/p3/1_clust02

>  <Rbt.Executable>
rbdock/0.1.0

>  <Rbt.Library>
librxdock.so/0.1.0

>  <Rbt.Parameter_File>
/cluster/rxdock/data/scripts/dock.prm

>  <Rbt.Receptor>
rx_3.prm

>  <SCORE>
106.395

>  <SCORE.INTER>
76.6168

>  <SCORE.INTER.CONST>
1

>  <SCORE.INTER.POLAR>
-0.72111

>  <SCORE.INTER.REPUL>
0.0486524

>  <SCORE.INTER.ROT>
32

>  <SCORE.INTER.VDW>
41.4253

>  <SCORE.INTER.norm>
1.53234

>  <SCORE.INTRA>
22.0528

>  <SCORE.INTRA.DIHEDRAL>
14.1994

>  <SCORE.INTRA.DIHEDRAL.0>
47.3121

>  <SCORE.INTRA.POLAR>
1.47808

>  <SCORE.INTRA.POLAR.0>
-1.47808

>  <SCORE.INTRA.REPUL>
0

>  <SCORE.INTRA.REPUL.0>
0

>  <SCORE.INTRA.VDW>
9.92758

>  <SCORE.INTRA.VDW.0>
-2.78316

>  <SCORE.INTRA.norm>
0.441055

>  <SCORE.RESTR>
7.72557

>  <SCORE.RESTR.CAVITY>
7.72557

>  <SCORE.RESTR.norm>
0.154511

>  <SCORE.SYSTEM>
0

>  <SCORE.SYSTEM.CONST>
0

>  <SCORE.SYSTEM.DIHEDRAL>
0

>  <SCORE.SYSTEM.norm>
0

>  <SCORE.heavy>
50

>  <SCORE.norm>
2.1279

$$$$
