FB1.pdb
  RxDock  10072009513D
librxdock.so/0.1.0
 59 58  0  0  0  0  0  0  0  0999 V2000
  -11.8877   -7.8164    3.9019 C   0  0  0  0  0  0
  -11.4587   -8.0565    2.4563 C   0  0  0  0  0  0
  -12.3817   -7.3343    1.4610 C   0  0  0  0  0  0
  -12.2744   -5.7903    1.5279 C   0  0  0  0  0  0
  -13.1652   -5.0198    0.4919 C   0  0  0  0  0  0
  -14.6467   -5.3530    0.7828 C   0  0  0  0  0  0
  -12.9255   -3.4512    0.4936 C   0  0  0  0  0  0
  -12.6406   -2.7622    1.9115 C   0  0  0  0  0  0
  -11.5181   -3.2180    2.9413 C   0  0  0  0  0  0
  -11.9808   -3.2200    4.5247 C   0  0  0  0  0  0
  -11.5243   -4.5315    5.1617 C   0  0  0  0  0  0
  -11.4734   -1.9917    5.4070 C   0  0  0  0  0  0
  -10.0430   -1.9464    6.1623 C   0  0  0  0  0  0
   -8.6850   -2.1283    5.4014 C   0  0  0  0  0  0
   -8.2441   -3.6042    4.9813 C   0  0  0  0  0  0
   -6.7691   -4.0144    4.5932 C   0  0  0  0  0  0
   -5.6986   -4.1627    5.7065 C   0  0  0  0  0  0
   -4.5441   -5.2047    5.4410 C   0  0  0  0  0  0
   -3.4555   -5.3015    6.5171 C   0  0  0  0  0  0
   -3.8929   -5.5567    7.9875 C   0  0  0  0  0  0
   -4.6202   -6.8770    8.3789 C   0  0  0  0  0  0
   -3.9339   -8.1742    7.9743 C   0  0  0  0  0  0
   -4.9582   -6.8849    9.8149 N   0  0  0  0  0  0
   -2.6542   -5.5725    8.7420 O   0  0  0  0  0  0
   -5.1422   -6.4956    5.2817 O   0  0  0  0  0  0
   -9.9739   -0.6338    6.7445 O   0  0  0  0  0  0
  -12.3284   -1.3706    1.6316 O   0  0  0  0  0  0
  -13.3234   -0.6085    1.1075 C   0  0  0  0  0  0
  -14.3726   -1.0142    0.6447 O   0  0  0  0  0  0
  -12.9582    0.8393    1.2857 C   0  0  0  0  0  0
  -12.2490    1.4251    0.0543 C   0  0  0  0  0  0
  -10.8028    1.8423    0.3509 C   0  0  0  0  0  0
  -10.4610    3.1466   -0.3312 C   0  0  0  0  0  0
  -10.7439    4.2473    0.1293 O   0  0  0  0  0  0
   -9.8131    2.9874   -1.4947 O   0  0  0  0  0  0
  -12.2689    0.3191   -1.0099 C   0  0  0  0  0  0
  -11.2884   -0.3528   -1.2919 O   0  0  0  0  0  0
  -13.4420    0.1820   -1.6431 O   0  0  0  0  0  0
  -11.9188   -3.0623   -0.5239 O   0  0  0  0  0  0
  -12.2393   -3.2202   -1.8620 C   0  0  0  0  0  0
  -12.1628   -2.3363   -2.7053 O   0  0  0  0  0  0
  -12.7086   -4.6447   -2.1858 C   0  0  0  0  0  0
  -11.5805   -5.7125   -2.3332 C   0  0  0  0  0  0
  -11.4715   -6.4697   -3.6693 C   0  0  0  0  0  0
  -10.1762   -7.2146   -3.8173 C   0  0  0  0  0  0
   -9.6917   -7.9748   -2.9904 O   0  0  0  0  0  0
   -9.5796   -6.9773   -4.9955 O   0  0  0  0  0  0
  -10.1752   -5.2080   -1.9826 C   0  0  0  0  0  0
   -9.3190   -5.0035   -2.8203 O   0  0  0  0  0  0
   -9.9777   -4.8997   -0.6837 O   0  0  0  0  0  0
   -5.7734   -6.2933    9.9695 H   0  0  0  0  0  0
   -4.2014   -6.4307   10.3311 H   0  0  0  0  0  0
   -2.5719   -4.6634    9.0999 H   0  0  0  0  0  0
   -5.7197   -6.6602    6.0498 H   0  0  0  0  0  0
   -9.1881   -0.5990    7.3153 H   0  0  0  0  0  0
  -10.3753    2.7424   -2.2545 H   0  0  0  0  0  0
  -14.1076    0.8820   -1.4294 H   0  0  0  0  0  0
  -10.1864   -6.4019   -5.5073 H   0  0  0  0  0  0
  -10.7810   -4.6179   -0.1923 H   0  0  0  0  0  0
  1  2  1  0  0  0
  2  3  1  0  0  0
  3  4  1  0  0  0
  4  5  1  0  0  0
  5  6  1  0  0  0
  5  7  1  0  0  0
  7  8  1  0  0  0
  7 39  1  0  0  0
  8  9  1  0  0  0
  8 27  1  0  0  0
  9 10  1  0  0  0
 10 11  1  0  0  0
 10 12  1  0  0  0
 12 13  1  0  0  0
 13 14  1  0  0  0
 13 26  1  0  0  0
 14 15  1  0  0  0
 15 16  1  0  0  0
 16 17  1  0  0  0
 17 18  1  0  0  0
 18 19  1  0  0  0
 18 25  1  0  0  0
 19 20  1  0  0  0
 20 21  1  0  0  0
 20 24  1  0  0  0
 21 22  1  0  0  0
 21 23  1  0  0  0
 23 51  1  0  0  0
 23 52  1  0  0  0
 24 53  1  0  0  0
 25 54  1  0  0  0
 26 55  1  0  0  0
 27 28  1  0  0  0
 28 29  2  0  0  0
 28 30  1  0  0  0
 30 31  1  0  0  0
 31 32  1  0  0  0
 31 36  1  0  0  0
 32 33  1  0  0  0
 33 34  2  0  0  0
 33 35  1  0  0  0
 35 56  1  0  0  0
 36 37  2  0  0  0
 36 38  1  0  0  0
 38 57  1  0  0  0
 39 40  1  0  0  0
 40 41  2  0  0  0
 40 42  1  0  0  0
 42 43  1  0  0  0
 43 44  1  0  0  0
 43 48  1  0  0  0
 44 45  1  0  0  0
 45 46  2  0  0  0
 45 47  1  0  0  0
 47 58  1  0  0  0
 48 49  2  0  0  0
 48 50  1  0  0  0
 50 59  1  0  0  0
M  END
>  <AUTHOR>
    GENERATED BY OPEN BABEL 2.4.1

>  <CHROM.1>
67.51936834,177.97190595,61.89980507,-36.74341082,53.20599241,67.00044456
-138.54932836,65.30538570,133.61643676,-86.36154178,56.76762730,-77.65617040
172.13060823,-161.90504924,74.91608241,150.28189770,177.38034992,53.76402131
-52.44777659,63.14796254,52.97708168,96.47733165,77.09088533,-13.02315128
94.14766947,-115.44261881,-139.66847700,-104.05748599,82.58278222,78.48533346
7.46015768,126.83867920,-78.70504040,-121.38537109,166.14620795,-107.81246827
49.98597804,-3.64243667,-27.62989328,-10.07253017,-3.51964011,1.87788629
-0.04749653,0.95042856,-2.66679909

>  <COMPND>
    UNNAMED

>  <MASTER>
        0    0    0    0    0    0    0    0  109    0  109    0

>  <Name>
FB1.pdb

>  <RI>
0

>  <Rbt.Current_Directory>
/cluster/tossine/FB1_39T3/p3/1_clust02

>  <Rbt.Executable>
rbdock/0.1.0

>  <Rbt.Library>
librxdock.so/0.1.0

>  <Rbt.Parameter_File>
/cluster/rxdock/data/scripts/dock.prm

>  <Rbt.Receptor>
rx_4.prm

>  <SCORE>
42.067

>  <SCORE.INTER>
3.00987

>  <SCORE.INTER.CONST>
1

>  <SCORE.INTER.POLAR>
-2.30496

>  <SCORE.INTER.REPUL>
0.609316

>  <SCORE.INTER.ROT>
32

>  <SCORE.INTER.VDW>
-29.5999

>  <SCORE.INTER.norm>
0.0601973

>  <SCORE.INTRA>
35.3687

>  <SCORE.INTRA.DIHEDRAL>
52.9039

>  <SCORE.INTRA.DIHEDRAL.0>
47.3121

>  <SCORE.INTRA.POLAR>
1.11326

>  <SCORE.INTRA.POLAR.0>
-1.47808

>  <SCORE.INTRA.REPUL>
0

>  <SCORE.INTRA.REPUL.0>
0

>  <SCORE.INTRA.VDW>
5.13165

>  <SCORE.INTRA.VDW.0>
-2.78316

>  <SCORE.INTRA.norm>
0.707374

>  <SCORE.RESTR>
3.68848

>  <SCORE.RESTR.CAVITY>
3.68848

>  <SCORE.RESTR.norm>
0.0737696

>  <SCORE.SYSTEM>
0

>  <SCORE.SYSTEM.CONST>
0

>  <SCORE.SYSTEM.DIHEDRAL>
0

>  <SCORE.SYSTEM.norm>
0

>  <SCORE.heavy>
50

>  <SCORE.norm>
0.841341

$$$$
