FB1.pdb
  RxDock  10072009163D
librxdock.so/0.1.0
 59 58  0  0  0  0  0  0  0  0999 V2000
   -2.9995   -1.7157  -12.2504 C   0  0  0  0  0  0
   -2.7960   -1.1815  -10.8345 C   0  0  0  0  0  0
   -1.7515   -0.0538  -10.7961 C   0  0  0  0  0  0
   -0.2894   -0.5654  -10.8141 C   0  0  0  0  0  0
    0.0912   -1.5225   -9.6312 C   0  0  0  0  0  0
    1.5941   -1.8660   -9.7490 C   0  0  0  0  0  0
   -0.2437   -0.9247   -8.2000 C   0  0  0  0  0  0
   -0.8870   -1.9259   -7.1277 C   0  0  0  0  0  0
   -2.3347   -1.7745   -6.4878 C   0  0  0  0  0  0
   -2.4727   -2.3126   -4.9345 C   0  0  0  0  0  0
   -1.7058   -1.3583   -4.0206 C   0  0  0  0  0  0
   -3.9584   -2.5012   -4.3851 C   0  0  0  0  0  0
   -4.3260   -2.7478   -2.8286 C   0  0  0  0  0  0
   -3.2906   -3.3214   -1.8015 C   0  0  0  0  0  0
   -3.8101   -4.3507   -0.6970 C   0  0  0  0  0  0
   -4.0713   -5.8851   -0.9652 C   0  0  0  0  0  0
   -4.5689   -6.7899    0.1929 C   0  0  0  0  0  0
   -3.5440   -7.8533    0.7477 C   0  0  0  0  0  0
   -3.8580   -8.4436    2.1281 C   0  0  0  0  0  0
   -5.0520   -9.4321    2.2530 C   0  0  0  0  0  0
   -6.4700   -8.9156    2.6375 C   0  0  0  0  0  0
   -7.2150   -9.7101    3.7011 C   0  0  0  0  0  0
   -6.4316   -7.4814    2.9810 N   0  0  0  0  0  0
   -5.2045   -9.9940    0.9246 O   0  0  0  0  0  0
   -3.4643   -8.9252   -0.1979 O   0  0  0  0  0  0
   -4.6774   -1.4493   -2.3217 O   0  0  0  0  0  0
   -0.9066   -3.2364   -7.7560 O   0  0  0  0  0  0
   -2.0802   -3.9196   -7.7214 C   0  0  0  0  0  0
   -3.1113   -3.6074   -8.2860 O   0  0  0  0  0  0
   -1.8682   -5.1908   -6.9466 C   0  0  0  0  0  0
   -3.1727   -5.9738   -6.7285 C   0  0  0  0  0  0
   -3.7440   -6.5413   -8.0343 C   0  0  0  0  0  0
   -4.8434   -7.5408   -7.7594 C   0  0  0  0  0  0
   -4.7369   -8.4630   -6.9582 O   0  0  0  0  0  0
   -5.9552   -7.3231   -8.4772 O   0  0  0  0  0  0
   -2.8223   -7.1182   -5.7675 C   0  0  0  0  0  0
   -3.4490   -7.3447   -4.7436 O   0  0  0  0  0  0
   -1.7374   -7.8224   -6.1183 O   0  0  0  0  0  0
    0.9161   -0.1866   -7.6432 O   0  0  0  0  0  0
    0.7079    1.0883   -7.1439 C   0  0  0  0  0  0
   -0.3681    1.6718   -7.1508 O   0  0  0  0  0  0
    1.9892    1.7066   -6.5692 C   0  0  0  0  0  0
    2.2532    1.4339   -5.0558 C   0  0  0  0  0  0
    2.8176    0.0582   -4.6564 C   0  0  0  0  0  0
    1.8353   -1.0595   -4.8567 C   0  0  0  0  0  0
    0.9195   -1.3490   -4.0989 O   0  0  0  0  0  0
    2.0476   -1.7308   -5.9988 O   0  0  0  0  0  0
    3.1110    2.4957   -4.3566 C   0  0  0  0  0  0
    2.6447    3.3373   -3.6142 O   0  0  0  0  0  0
    4.4432    2.3726   -4.5332 O   0  0  0  0  0  0
   -6.2617   -6.9397    2.1347 H   0  0  0  0  0  0
   -5.6156   -7.3089    3.5725 H   0  0  0  0  0  0
   -5.5489  -10.8992    1.0777 H   0  0  0  0  0  0
   -3.1975   -8.5525   -1.0584 H   0  0  0  0  0  0
   -5.4833   -1.1559   -2.7789 H   0  0  0  0  0  0
   -6.6941   -7.9355   -8.2969 H   0  0  0  0  0  0
   -1.3569   -7.5781   -6.9982 H   0  0  0  0  0  0
    1.2847   -2.3356   -6.1157 H   0  0  0  0  0  0
    4.9910    3.0535   -4.0831 H   0  0  0  0  0  0
  1  2  1  0  0  0
  2  3  1  0  0  0
  3  4  1  0  0  0
  4  5  1  0  0  0
  5  6  1  0  0  0
  5  7  1  0  0  0
  7  8  1  0  0  0
  7 39  1  0  0  0
  8  9  1  0  0  0
  8 27  1  0  0  0
  9 10  1  0  0  0
 10 11  1  0  0  0
 10 12  1  0  0  0
 12 13  1  0  0  0
 13 14  1  0  0  0
 13 26  1  0  0  0
 14 15  1  0  0  0
 15 16  1  0  0  0
 16 17  1  0  0  0
 17 18  1  0  0  0
 18 19  1  0  0  0
 18 25  1  0  0  0
 19 20  1  0  0  0
 20 21  1  0  0  0
 20 24  1  0  0  0
 21 22  1  0  0  0
 21 23  1  0  0  0
 23 51  1  0  0  0
 23 52  1  0  0  0
 24 53  1  0  0  0
 25 54  1  0  0  0
 26 55  1  0  0  0
 27 28  1  0  0  0
 28 29  2  0  0  0
 28 30  1  0  0  0
 30 31  1  0  0  0
 31 32  1  0  0  0
 31 36  1  0  0  0
 32 33  1  0  0  0
 33 34  2  0  0  0
 33 35  1  0  0  0
 35 56  1  0  0  0
 36 37  2  0  0  0
 36 38  1  0  0  0
 38 57  1  0  0  0
 39 40  1  0  0  0
 40 41  2  0  0  0
 40 42  1  0  0  0
 42 43  1  0  0  0
 43 44  1  0  0  0
 43 48  1  0  0  0
 44 45  1  0  0  0
 45 46  2  0  0  0
 45 47  1  0  0  0
 47 58  1  0  0  0
 48 49  2  0  0  0
 48 50  1  0  0  0
 50 59  1  0  0  0
M  END
>  <AUTHOR>
    GENERATED BY OPEN BABEL 2.4.1

>  <CHROM.1>
-79.98228122,-58.70351365,-176.50667887,138.05455728,-116.94267831,130.43187400
-147.36736889,-130.13391956,70.16122134,-168.10257247,-22.21670946,-141.70328097
64.91127919,79.56229184,179.62790781,-110.08585865,162.25653850,71.37165571
57.42411951,-93.02568130,-134.17555160,149.32399936,70.31679644,66.37227222
174.31626007,67.53930244,167.81421882,128.25064607,-48.98813842,-177.93832997
-6.13515330,-1.55647642,-89.87255484,78.34241483,-68.83241793,103.68694681
-79.97231654,-171.05342700,-179.91626948,-1.99115554,-3.58058298,-4.84456211
0.71781392,-0.92454923,-1.49873897

>  <COMPND>
    UNNAMED

>  <MASTER>
        0    0    0    0    0    0    0    0  109    0  109    0

>  <Name>
FB1.pdb

>  <RI>
0

>  <Rbt.Current_Directory>
/cluster/tossine/FB1_39T3/p3/1_clust02

>  <Rbt.Executable>
rbdock/0.1.0

>  <Rbt.Library>
librxdock.so/0.1.0

>  <Rbt.Parameter_File>
/cluster/rxdock/data/scripts/dock.prm

>  <Rbt.Receptor>
rx_3.prm

>  <SCORE>
108.87

>  <SCORE.INTER>
69.3124

>  <SCORE.INTER.CONST>
1

>  <SCORE.INTER.POLAR>
-1.44621

>  <SCORE.INTER.REPUL>
0.551899

>  <SCORE.INTER.ROT>
32

>  <SCORE.INTER.VDW>
34.07

>  <SCORE.INTER.norm>
1.38625

>  <SCORE.INTRA>
34.9317

>  <SCORE.INTRA.DIHEDRAL>
42.3594

>  <SCORE.INTRA.DIHEDRAL.0>
47.3121

>  <SCORE.INTRA.POLAR>
1.47808

>  <SCORE.INTRA.POLAR.0>
-1.47808

>  <SCORE.INTRA.REPUL>
0.0183407

>  <SCORE.INTRA.REPUL.0>
0

>  <SCORE.INTRA.VDW>
8.63487

>  <SCORE.INTRA.VDW.0>
-2.78316

>  <SCORE.INTRA.norm>
0.698635

>  <SCORE.RESTR>
4.62548

>  <SCORE.RESTR.CAVITY>
4.62548

>  <SCORE.RESTR.norm>
0.0925096

>  <SCORE.SYSTEM>
0

>  <SCORE.SYSTEM.CONST>
0

>  <SCORE.SYSTEM.DIHEDRAL>
0

>  <SCORE.SYSTEM.norm>
0

>  <SCORE.heavy>
50

>  <SCORE.norm>
2.17739

$$$$
