FB1.pdb
  RxDock  10072007253D
librxdock.so/0.1.0
 59 58  0  0  0  0  0  0  0  0999 V2000
    0.9909    2.4064   -7.3886 C   0  0  0  0  0  0
   -0.0931    1.6329   -6.6416 C   0  0  0  0  0  0
    0.4912    0.8108   -5.4810 C   0  0  0  0  0  0
   -0.5029   -0.2219   -4.8937 C   0  0  0  0  0  0
   -0.6872   -1.5235   -5.7496 C   0  0  0  0  0  0
   -0.1117   -2.7155   -4.9505 C   0  0  0  0  0  0
   -2.1925   -1.7965   -6.1708 C   0  0  0  0  0  0
   -2.4319   -2.5205   -7.5796 C   0  0  0  0  0  0
   -3.5068   -3.6601   -7.8517 C   0  0  0  0  0  0
   -2.8787   -5.1458   -8.1976 C   0  0  0  0  0  0
   -2.8345   -5.9657   -6.9092 C   0  0  0  0  0  0
   -3.6259   -5.9775   -9.3355 C   0  0  0  0  0  0
   -5.0449   -6.7273   -9.1281 C   0  0  0  0  0  0
   -5.1546   -8.1594   -8.5010 C   0  0  0  0  0  0
   -4.9035   -8.3206   -6.9326 C   0  0  0  0  0  0
   -5.2381   -9.6259   -6.1086 C   0  0  0  0  0  0
   -4.4877   -9.9044   -4.7794 C   0  0  0  0  0  0
   -5.1453   -9.3320   -3.4645 C   0  0  0  0  0  0
   -5.6535  -10.3669   -2.4530 C   0  0  0  0  0  0
   -4.6917  -10.8244   -1.3199 C   0  0  0  0  0  0
   -4.9654  -10.4242    0.1601 C   0  0  0  0  0  0
   -6.3123  -10.8383    0.7360 C   0  0  0  0  0  0
   -3.8609  -10.8607    1.0354 N   0  0  0  0  0  0
   -4.7662  -12.2729   -1.3370 O   0  0  0  0  0  0
   -4.1803   -8.4973   -2.8152 O   0  0  0  0  0  0
   -5.7888   -5.8724   -8.2436 O   0  0  0  0  0  0
   -2.7749   -1.4697   -8.5233 O   0  0  0  0  0  0
   -2.1225   -1.4737   -9.7148 C   0  0  0  0  0  0
   -1.2687   -2.2660  -10.0649 O   0  0  0  0  0  0
   -2.7044   -0.3897  -10.5797 C   0  0  0  0  0  0
   -3.7542   -0.9227  -11.5678 C   0  0  0  0  0  0
   -3.1216   -1.5753  -12.8036 C   0  0  0  0  0  0
   -4.1765   -2.1784  -13.7018 C   0  0  0  0  0  0
   -5.3232   -1.7515  -13.7828 O   0  0  0  0  0  0
   -3.7385   -3.2307  -14.4086 O   0  0  0  0  0  0
   -4.5778   -1.9587  -10.7902 C   0  0  0  0  0  0
   -4.1002   -2.9897  -10.3415 O   0  0  0  0  0  0
   -5.8807   -1.6634  -10.6850 O   0  0  0  0  0  0
   -2.9443   -2.4545   -5.0746 O   0  0  0  0  0  0
   -3.3559   -1.6819   -4.0013 C   0  0  0  0  0  0
   -4.1937   -0.7917   -4.0648 O   0  0  0  0  0  0
   -2.6406   -2.0639   -2.6987 C   0  0  0  0  0  0
   -3.5683   -2.4001   -1.4901 C   0  0  0  0  0  0
   -4.4721   -3.6421   -1.5955 C   0  0  0  0  0  0
   -3.7012   -4.9306   -1.5904 C   0  0  0  0  0  0
   -2.6984   -5.1648   -2.2507 O   0  0  0  0  0  0
   -4.2206   -5.8360   -0.7472 O   0  0  0  0  0  0
   -2.8503   -2.4760   -0.1369 C   0  0  0  0  0  0
   -2.8434   -3.4774    0.5516 O   0  0  0  0  0  0
   -2.1292   -1.3857    0.1983 O   0  0  0  0  0  0
   -4.1043  -10.6617    2.0047 H   0  0  0  0  0  0
   -3.0428  -10.2780    0.8442 H   0  0  0  0  0  0
   -4.3874  -12.5291   -2.2043 H   0  0  0  0  0  0
   -4.3970   -8.4639   -1.8653 H   0  0  0  0  0  0
   -6.6794   -6.2477   -8.1411 H   0  0  0  0  0  0
   -2.8942   -3.6151  -14.1038 H   0  0  0  0  0  0
   -6.0892   -0.6986  -10.7525 H   0  0  0  0  0  0
   -4.0563   -5.5023    0.1599 H   0  0  0  0  0  0
   -1.4704   -1.5223    0.9149 H   0  0  0  0  0  0
  1  2  1  0  0  0
  2  3  1  0  0  0
  3  4  1  0  0  0
  4  5  1  0  0  0
  5  6  1  0  0  0
  5  7  1  0  0  0
  7  8  1  0  0  0
  7 39  1  0  0  0
  8  9  1  0  0  0
  8 27  1  0  0  0
  9 10  1  0  0  0
 10 11  1  0  0  0
 10 12  1  0  0  0
 12 13  1  0  0  0
 13 14  1  0  0  0
 13 26  1  0  0  0
 14 15  1  0  0  0
 15 16  1  0  0  0
 16 17  1  0  0  0
 17 18  1  0  0  0
 18 19  1  0  0  0
 18 25  1  0  0  0
 19 20  1  0  0  0
 20 21  1  0  0  0
 20 24  1  0  0  0
 21 22  1  0  0  0
 21 23  1  0  0  0
 23 51  1  0  0  0
 23 52  1  0  0  0
 24 53  1  0  0  0
 25 54  1  0  0  0
 26 55  1  0  0  0
 27 28  1  0  0  0
 28 29  2  0  0  0
 28 30  1  0  0  0
 30 31  1  0  0  0
 31 32  1  0  0  0
 31 36  1  0  0  0
 32 33  1  0  0  0
 33 34  2  0  0  0
 33 35  1  0  0  0
 35 56  1  0  0  0
 36 37  2  0  0  0
 36 38  1  0  0  0
 38 57  1  0  0  0
 39 40  1  0  0  0
 40 41  2  0  0  0
 40 42  1  0  0  0
 42 43  1  0  0  0
 43 44  1  0  0  0
 43 48  1  0  0  0
 44 45  1  0  0  0
 45 46  2  0  0  0
 45 47  1  0  0  0
 47 58  1  0  0  0
 48 49  2  0  0  0
 48 50  1  0  0  0
 50 59  1  0  0  0
M  END
>  <AUTHOR>
    GENERATED BY OPEN BABEL 2.4.1

>  <CHROM.1>
-167.33343055,77.42477884,113.16148946,147.78719674,138.89076159,76.49206477
-113.09402553,132.14128638,95.75719631,-75.13665332,-83.68305702,72.82358134
175.75239737,167.98743973,156.25878675,90.21516036,114.12424726,92.37430929
-155.27857661,110.90402906,57.20958303,65.21386173,-174.94236978,-0.70272791
-97.56411789,-79.84852687,175.76457293,-63.41156345,28.92846728,14.77844312
-25.10377812,66.81907076,-126.15798326,65.09259816,68.24638333,-120.46884088
-46.18542145,-69.32549062,-162.88380175,-3.42899764,-4.33066352,-5.85104980
-1.23757307,1.15740862,1.92761257

>  <COMPND>
    UNNAMED

>  <MASTER>
        0    0    0    0    0    0    0    0  109    0  109    0

>  <Name>
FB1.pdb

>  <RI>
0

>  <Rbt.Current_Directory>
/cluster/tossine/FB1_39T3/p3/1_clust02

>  <Rbt.Executable>
rbdock/0.1.0

>  <Rbt.Library>
librxdock.so/0.1.0

>  <Rbt.Parameter_File>
/cluster/rxdock/data/scripts/dock.prm

>  <Rbt.Receptor>
rx_0.prm

>  <SCORE>
93.7982

>  <SCORE.INTER>
49.5696

>  <SCORE.INTER.CONST>
1

>  <SCORE.INTER.POLAR>
-1.92096

>  <SCORE.INTER.REPUL>
2.28657

>  <SCORE.INTER.ROT>
32

>  <SCORE.INTER.VDW>
7.26798

>  <SCORE.INTER.norm>
0.991391

>  <SCORE.INTRA>
43.3607

>  <SCORE.INTRA.DIHEDRAL>
76.3982

>  <SCORE.INTRA.DIHEDRAL.0>
47.3121

>  <SCORE.INTRA.POLAR>
1.34546

>  <SCORE.INTRA.POLAR.0>
-1.47808

>  <SCORE.INTRA.REPUL>
0

>  <SCORE.INTRA.REPUL.0>
0

>  <SCORE.INTRA.VDW>
0.587027

>  <SCORE.INTRA.VDW.0>
-2.78316

>  <SCORE.INTRA.norm>
0.867214

>  <SCORE.RESTR>
0.867977

>  <SCORE.RESTR.CAVITY>
0.867977

>  <SCORE.RESTR.norm>
0.0173595

>  <SCORE.SYSTEM>
0

>  <SCORE.SYSTEM.CONST>
0

>  <SCORE.SYSTEM.DIHEDRAL>
0

>  <SCORE.SYSTEM.norm>
0

>  <SCORE.heavy>
50

>  <SCORE.norm>
1.87596

$$$$
