FB1.pdb
  RxDock  10072007173D
librxdock.so/0.1.0
 59 58  0  0  0  0  0  0  0  0999 V2000
    0.0161    2.0942   -5.8011 C   0  0  0  0  0  0
    1.0302    1.1899   -5.1046 C   0  0  0  0  0  0
    0.5799   -0.2803   -5.1096 C   0  0  0  0  0  0
    0.7466   -0.9726   -6.4854 C   0  0  0  0  0  0
   -0.3627   -0.6263   -7.5389 C   0  0  0  0  0  0
    0.2856    0.2023   -8.6720 C   0  0  0  0  0  0
   -1.1030   -1.9031   -8.1219 C   0  0  0  0  0  0
   -1.9646   -2.7759   -7.0913 C   0  0  0  0  0  0
   -1.9431   -4.3628   -6.9950 C   0  0  0  0  0  0
   -3.0884   -5.1339   -7.8979 C   0  0  0  0  0  0
   -2.8314   -4.8270   -9.3723 C   0  0  0  0  0  0
   -3.2013   -6.7118   -7.6917 C   0  0  0  0  0  0
   -3.6029   -7.4178   -6.2922 C   0  0  0  0  0  0
   -2.9072   -8.7258   -5.7810 C   0  0  0  0  0  0
   -3.7710  -10.0670   -5.7152 C   0  0  0  0  0  0
   -5.3042  -10.1190   -5.3396 C   0  0  0  0  0  0
   -5.8891   -9.0621   -4.3657 C   0  0  0  0  0  0
   -5.1447   -8.8858   -2.9859 C   0  0  0  0  0  0
   -4.9276  -10.1618   -2.1631 C   0  0  0  0  0  0
   -4.5814  -10.0161   -0.6540 C   0  0  0  0  0  0
   -4.1440  -11.2559    0.1808 C   0  0  0  0  0  0
   -4.8958  -11.4955    1.4827 C   0  0  0  0  0  0
   -4.1317  -12.4730   -0.6527 N   0  0  0  0  0  0
   -3.4402   -9.1213   -0.6234 O   0  0  0  0  0  0
   -3.8692   -8.2894   -3.2453 O   0  0  0  0  0  0
   -3.3268   -6.4283   -5.2865 O   0  0  0  0  0  0
   -1.5823   -2.3295   -5.7620 O   0  0  0  0  0  0
   -2.4382   -1.4901   -5.1232 C   0  0  0  0  0  0
   -3.2503   -0.7533   -5.6497 O   0  0  0  0  0  0
   -2.2883   -1.6948   -3.6410 C   0  0  0  0  0  0
   -3.3371   -2.6622   -3.0696 C   0  0  0  0  0  0
   -3.9914   -2.1310   -1.7878 C   0  0  0  0  0  0
   -3.2016   -2.5355   -0.5647 C   0  0  0  0  0  0
   -2.4171   -1.7908    0.0131 O   0  0  0  0  0  0
   -3.4413   -3.7934   -0.1657 O   0  0  0  0  0  0
   -4.3958   -2.8332   -4.1677 C   0  0  0  0  0  0
   -5.5584   -2.4827   -4.0337 O   0  0  0  0  0  0
   -3.9516   -3.4463   -5.2735 O   0  0  0  0  0  0
   -1.8753   -1.5637   -9.3418 O   0  0  0  0  0  0
   -1.2338   -1.6294  -10.5675 C   0  0  0  0  0  0
   -0.0277   -1.7773  -10.7151 O   0  0  0  0  0  0
   -2.2088   -1.4958  -11.7447 C   0  0  0  0  0  0
   -3.7203   -1.6600  -11.3942 C   0  0  0  0  0  0
   -4.7023   -0.5913  -11.9082 C   0  0  0  0  0  0
   -4.3295    0.8001  -11.4845 C   0  0  0  0  0  0
   -4.9708    1.5096  -10.7217 O   0  0  0  0  0  0
   -3.1711    1.2080  -12.0249 O   0  0  0  0  0  0
   -4.3127   -3.0288  -11.7517 C   0  0  0  0  0  0
   -5.0490   -3.6446  -11.0064 O   0  0  0  0  0  0
   -4.0500   -3.4653  -13.0014 O   0  0  0  0  0  0
   -3.6371  -12.2775   -1.5220 H   0  0  0  0  0  0
   -5.0910  -12.6838   -0.9371 H   0  0  0  0  0  0
   -2.8198   -9.4899   -1.2872 H   0  0  0  0  0  0
   -4.0184   -7.4247   -3.6702 H   0  0  0  0  0  0
   -2.4086   -6.1312   -5.4011 H   0  0  0  0  0  0
   -3.1532   -4.0043    0.7432 H   0  0  0  0  0  0
   -4.6368   -3.5718   -5.9761 H   0  0  0  0  0  0
   -2.7454    1.7966  -11.3664 H   0  0  0  0  0  0
   -4.2125   -4.4226  -13.1543 H   0  0  0  0  0  0
  1  2  1  0  0  0
  2  3  1  0  0  0
  3  4  1  0  0  0
  4  5  1  0  0  0
  5  6  1  0  0  0
  5  7  1  0  0  0
  7  8  1  0  0  0
  7 39  1  0  0  0
  8  9  1  0  0  0
  8 27  1  0  0  0
  9 10  1  0  0  0
 10 11  1  0  0  0
 10 12  1  0  0  0
 12 13  1  0  0  0
 13 14  1  0  0  0
 13 26  1  0  0  0
 14 15  1  0  0  0
 15 16  1  0  0  0
 16 17  1  0  0  0
 17 18  1  0  0  0
 18 19  1  0  0  0
 18 25  1  0  0  0
 19 20  1  0  0  0
 20 21  1  0  0  0
 20 24  1  0  0  0
 21 22  1  0  0  0
 21 23  1  0  0  0
 23 51  1  0  0  0
 23 52  1  0  0  0
 24 53  1  0  0  0
 25 54  1  0  0  0
 26 55  1  0  0  0
 27 28  1  0  0  0
 28 29  2  0  0  0
 28 30  1  0  0  0
 30 31  1  0  0  0
 31 32  1  0  0  0
 31 36  1  0  0  0
 32 33  1  0  0  0
 33 34  2  0  0  0
 33 35  1  0  0  0
 35 56  1  0  0  0
 36 37  2  0  0  0
 36 38  1  0  0  0
 38 57  1  0  0  0
 39 40  1  0  0  0
 40 41  2  0  0  0
 40 42  1  0  0  0
 42 43  1  0  0  0
 43 44  1  0  0  0
 43 48  1  0  0  0
 44 45  1  0  0  0
 45 46  2  0  0  0
 45 47  1  0  0  0
 47 58  1  0  0  0
 48 49  2  0  0  0
 48 50  1  0  0  0
 50 59  1  0  0  0
M  END
>  <AUTHOR>
    GENERATED BY OPEN BABEL 2.4.1

>  <CHROM.1>
75.27086594,-78.20846622,112.10786162,64.43466690,-134.80696016,88.27757984
-92.47623196,101.99282886,62.89551554,62.39963901,-140.02200607,-112.30831131
-53.28561258,-35.46863071,-30.52744395,-52.47156559,-53.10910760,-162.82627758
60.10402460,-170.87909359,-128.39055095,-48.93515687,48.02127110,-24.43197625
-96.17709833,-133.46746622,-88.29040295,-116.50470150,99.75219514,-163.50423590
178.96316298,-10.06281639,-14.18581051,130.63497694,-55.67760301,136.30892736
-113.72749242,-147.18823395,164.23417695,-3.03318396,-4.02772152,-6.02933357
-1.08220006,1.21780855,1.91806951

>  <COMPND>
    UNNAMED

>  <MASTER>
        0    0    0    0    0    0    0    0  109    0  109    0

>  <Name>
FB1.pdb

>  <RI>
0

>  <Rbt.Current_Directory>
/cluster/tossine/FB1_39T3/p3/1_clust02

>  <Rbt.Executable>
rbdock/0.1.0

>  <Rbt.Library>
librxdock.so/0.1.0

>  <Rbt.Parameter_File>
/cluster/rxdock/data/scripts/dock.prm

>  <Rbt.Receptor>
rx_0.prm

>  <SCORE>
52.7463

>  <SCORE.INTER>
27.604

>  <SCORE.INTER.CONST>
1

>  <SCORE.INTER.POLAR>
-2.07367

>  <SCORE.INTER.REPUL>
1.02459

>  <SCORE.INTER.ROT>
32

>  <SCORE.INTER.VDW>
-7.86847

>  <SCORE.INTER.norm>
0.55208

>  <SCORE.INTRA>
25.1383

>  <SCORE.INTRA.DIHEDRAL>
38.8126

>  <SCORE.INTRA.DIHEDRAL.0>
47.3121

>  <SCORE.INTRA.POLAR>
0.734494

>  <SCORE.INTRA.POLAR.0>
-1.47808

>  <SCORE.INTRA.REPUL>
0.0137304

>  <SCORE.INTRA.REPUL.0>
0

>  <SCORE.INTRA.VDW>
3.16605

>  <SCORE.INTRA.VDW.0>
-2.78316

>  <SCORE.INTRA.norm>
0.502766

>  <SCORE.RESTR>
0.00404394

>  <SCORE.RESTR.CAVITY>
0.00404394

>  <SCORE.RESTR.norm>
8.08789e-05

>  <SCORE.SYSTEM>
0

>  <SCORE.SYSTEM.CONST>
0

>  <SCORE.SYSTEM.DIHEDRAL>
0

>  <SCORE.SYSTEM.norm>
0

>  <SCORE.heavy>
50

>  <SCORE.norm>
1.05493

$$$$
