FB1.pdb
  RxDock  10072007253D
librxdock.so/0.1.0
 59 58  0  0  0  0  0  0  0  0999 V2000
   -7.7894   -5.4048   -8.3925 C   0  0  0  0  0  0
   -6.9552   -5.0096   -9.6087 C   0  0  0  0  0  0
   -5.5528   -5.6388   -9.5660 C   0  0  0  0  0  0
   -4.7081   -5.1829   -8.3502 C   0  0  0  0  0  0
   -3.2376   -5.7281   -8.3245 C   0  0  0  0  0  0
   -2.4104   -4.9430   -9.3685 C   0  0  0  0  0  0
   -2.5598   -5.6544   -6.8916 C   0  0  0  0  0  0
   -2.2430   -4.1946   -6.3129 C   0  0  0  0  0  0
   -2.6734   -2.8256   -6.9977 C   0  0  0  0  0  0
   -1.4457   -1.7527   -7.2486 C   0  0  0  0  0  0
   -1.2665   -0.9159   -5.9830 C   0  0  0  0  0  0
   -0.0427   -2.3778   -7.6796 C   0  0  0  0  0  0
    1.3103   -1.5147   -7.8866 C   0  0  0  0  0  0
    2.5875   -2.1068   -8.5751 C   0  0  0  0  0  0
    3.2548   -1.2835   -9.7693 C   0  0  0  0  0  0
    3.6436    0.2450   -9.6863 C   0  0  0  0  0  0
    3.6435    1.1052  -10.9776 C   0  0  0  0  0  0
    4.2433    2.5594  -10.8568 C   0  0  0  0  0  0
    3.9143    3.3253   -9.5692 C   0  0  0  0  0  0
    2.6225    4.1904   -9.5356 C   0  0  0  0  0  0
    1.2215    3.5173   -9.4392 C   0  0  0  0  0  0
    0.8226    2.9759   -8.0735 C   0  0  0  0  0  0
    0.1742    4.4036   -9.9815 N   0  0  0  0  0  0
    2.7423    4.9831   -8.3268 O   0  0  0  0  0  0
    5.6667    2.4615  -10.9765 O   0  0  0  0  0  0
    0.9184   -0.4058   -8.7132 O   0  0  0  0  0  0
   -2.8465   -4.1414   -4.9918 O   0  0  0  0  0  0
   -2.3404   -3.2322   -4.1186 C   0  0  0  0  0  0
   -2.1371   -2.0543   -4.3437 O   0  0  0  0  0  0
   -2.1646   -3.9013   -2.7834 C   0  0  0  0  0  0
   -3.5034   -4.3000   -2.1420 C   0  0  0  0  0  0
   -3.3474   -5.4123   -1.0971 C   0  0  0  0  0  0
   -3.4417   -6.7781   -1.7367 C   0  0  0  0  0  0
   -4.3788   -7.1327   -2.4437 O   0  0  0  0  0  0
   -2.3968   -7.5716   -1.4586 O   0  0  0  0  0  0
   -4.0482   -3.0280   -1.4778 C   0  0  0  0  0  0
   -3.5492   -2.5305   -0.4799 O   0  0  0  0  0  0
   -5.1512   -2.5317   -2.0550 O   0  0  0  0  0  0
   -3.2898   -6.4933   -5.9102 O   0  0  0  0  0  0
   -3.8709   -7.6701   -6.3523 C   0  0  0  0  0  0
   -4.3621   -7.8301   -7.4620 O   0  0  0  0  0  0
   -3.8347   -8.7749   -5.2881 C   0  0  0  0  0  0
   -5.1385   -9.6199   -5.1444 C   0  0  0  0  0  0
   -5.1292  -10.8020   -4.1580 C   0  0  0  0  0  0
   -6.3633  -10.8638   -3.3049 C   0  0  0  0  0  0
   -6.4089  -10.6568   -2.1000 O   0  0  0  0  0  0
   -7.4630  -11.1606   -4.0140 O   0  0  0  0  0  0
   -6.4017   -8.7992   -4.8560 C   0  0  0  0  0  0
   -7.2550   -8.5843   -5.6940 O   0  0  0  0  0  0
   -6.5626   -8.4152   -3.5723 O   0  0  0  0  0  0
   -0.6932    3.8770  -10.0756 H   0  0  0  0  0  0
    0.4292    4.6641  -10.9368 H   0  0  0  0  0  0
    3.6483    5.3559   -8.3651 H   0  0  0  0  0  0
    6.0272    3.3629  -11.0654 H   0  0  0  0  0  0
    0.8083    0.3719   -8.1408 H   0  0  0  0  0  0
   -2.4983   -8.5043   -1.7294 H   0  0  0  0  0  0
   -5.5214   -1.7295   -1.6098 H   0  0  0  0  0  0
   -8.2136  -11.1584   -3.3832 H   0  0  0  0  0  0
   -7.1812   -7.6640   -3.4333 H   0  0  0  0  0  0
  1  2  1  0  0  0
  2  3  1  0  0  0
  3  4  1  0  0  0
  4  5  1  0  0  0
  5  6  1  0  0  0
  5  7  1  0  0  0
  7  8  1  0  0  0
  7 39  1  0  0  0
  8  9  1  0  0  0
  8 27  1  0  0  0
  9 10  1  0  0  0
 10 11  1  0  0  0
 10 12  1  0  0  0
 12 13  1  0  0  0
 13 14  1  0  0  0
 13 26  1  0  0  0
 14 15  1  0  0  0
 15 16  1  0  0  0
 16 17  1  0  0  0
 17 18  1  0  0  0
 18 19  1  0  0  0
 18 25  1  0  0  0
 19 20  1  0  0  0
 20 21  1  0  0  0
 20 24  1  0  0  0
 21 22  1  0  0  0
 21 23  1  0  0  0
 23 51  1  0  0  0
 23 52  1  0  0  0
 24 53  1  0  0  0
 25 54  1  0  0  0
 26 55  1  0  0  0
 27 28  1  0  0  0
 28 29  2  0  0  0
 28 30  1  0  0  0
 30 31  1  0  0  0
 31 32  1  0  0  0
 31 36  1  0  0  0
 32 33  1  0  0  0
 33 34  2  0  0  0
 33 35  1  0  0  0
 35 56  1  0  0  0
 36 37  2  0  0  0
 36 38  1  0  0  0
 38 57  1  0  0  0
 39 40  1  0  0  0
 40 41  2  0  0  0
 40 42  1  0  0  0
 42 43  1  0  0  0
 43 44  1  0  0  0
 43 48  1  0  0  0
 44 45  1  0  0  0
 45 46  2  0  0  0
 45 47  1  0  0  0
 47 58  1  0  0  0
 48 49  2  0  0  0
 48 50  1  0  0  0
 50 59  1  0  0  0
M  END
>  <AUTHOR>
    GENERATED BY OPEN BABEL 2.4.1

>  <CHROM.1>
-62.09835262,-176.05914985,75.10687260,-67.99974882,5.93912473,34.15054971
-126.53171182,157.24631967,-86.55905121,-176.11016976,-167.69858592,128.81942970
101.11892138,51.30207642,-151.31605217,-171.27871873,-39.37434717,-89.17295563
169.85091173,73.78684677,75.96953937,48.48097309,169.01020662,49.05565866
-66.34296103,158.24387952,-88.25480383,-70.37502806,-53.67816785,170.10852697
178.03225040,-34.07335596,137.70207225,176.04525190,135.32434267,105.30327456
-111.41821008,-178.73291315,160.63179198,-2.20209431,-3.72309763,-6.26350601
2.90181726,0.94458754,1.38441720

>  <COMPND>
    UNNAMED

>  <MASTER>
        0    0    0    0    0    0    0    0  109    0  109    0

>  <Name>
FB1.pdb

>  <RI>
0

>  <Rbt.Current_Directory>
/cluster/tossine/FB1_39T3/p3/1_clust02

>  <Rbt.Executable>
rbdock/0.1.0

>  <Rbt.Library>
librxdock.so/0.1.0

>  <Rbt.Parameter_File>
/cluster/rxdock/data/scripts/dock.prm

>  <Rbt.Receptor>
rx_0.prm

>  <SCORE>
95.5228

>  <SCORE.INTER>
45.6847

>  <SCORE.INTER.CONST>
1

>  <SCORE.INTER.POLAR>
-2.86241

>  <SCORE.INTER.REPUL>
1.14627

>  <SCORE.INTER.ROT>
32

>  <SCORE.INTER.VDW>
12.2856

>  <SCORE.INTER.norm>
0.913695

>  <SCORE.INTRA>
43.4677

>  <SCORE.INTRA.DIHEDRAL>
39.1698

>  <SCORE.INTRA.DIHEDRAL.0>
47.3121

>  <SCORE.INTRA.POLAR>
1.47808

>  <SCORE.INTRA.POLAR.0>
-1.47808

>  <SCORE.INTRA.REPUL>
0.0342413

>  <SCORE.INTRA.REPUL.0>
0

>  <SCORE.INTRA.VDW>
18.6861

>  <SCORE.INTRA.VDW.0>
-2.78316

>  <SCORE.INTRA.norm>
0.869353

>  <SCORE.RESTR>
6.37042

>  <SCORE.RESTR.CAVITY>
6.37042

>  <SCORE.RESTR.norm>
0.127408

>  <SCORE.SYSTEM>
0

>  <SCORE.SYSTEM.CONST>
0

>  <SCORE.SYSTEM.DIHEDRAL>
0

>  <SCORE.SYSTEM.norm>
0

>  <SCORE.heavy>
50

>  <SCORE.norm>
1.91046

$$$$
