FB1.pdb
  RxDock  10072008373D
librxdock.so/0.1.0
 59 58  0  0  0  0  0  0  0  0999 V2000
   -7.9904   -1.8423  -12.5293 C   0  0  0  0  0  0
   -7.7139   -0.6756  -11.5839 C   0  0  0  0  0  0
   -6.2747   -0.1540  -11.7290 C   0  0  0  0  0  0
   -5.2190   -1.0545  -11.0405 C   0  0  0  0  0  0
   -3.8103   -1.0685  -11.7303 C   0  0  0  0  0  0
   -3.2812    0.3834  -11.7832 C   0  0  0  0  0  0
   -2.7659   -2.0274  -11.0179 C   0  0  0  0  0  0
   -1.7978   -1.3639   -9.9276 C   0  0  0  0  0  0
   -0.7621   -2.1582   -9.0195 C   0  0  0  0  0  0
   -1.3759   -2.7390   -7.6027 C   0  0  0  0  0  0
   -2.7188   -2.0591   -7.3409 C   0  0  0  0  0  0
   -1.5504   -4.3219   -7.5086 C   0  0  0  0  0  0
   -2.0526   -5.1024   -6.1830 C   0  0  0  0  0  0
   -2.7667   -4.3692   -4.9962 C   0  0  0  0  0  0
   -1.9054   -3.3735   -4.0930 C   0  0  0  0  0  0
   -1.4976   -1.9099   -4.5245 C   0  0  0  0  0  0
   -0.0553   -1.4065   -4.2529 C   0  0  0  0  0  0
    0.5232   -0.3433   -5.2649 C   0  0  0  0  0  0
    1.9817   -0.5400   -5.6969 C   0  0  0  0  0  0
    3.0754    0.3343   -5.0204 C   0  0  0  0  0  0
    2.9238    1.8831   -4.9578 C   0  0  0  0  0  0
    4.0089    2.6401   -4.2050 C   0  0  0  0  0  0
    2.7266    2.4468   -6.3068 N   0  0  0  0  0  0
    3.0873   -0.0980   -3.6360 O   0  0  0  0  0  0
   -0.3026   -0.3517   -6.4344 O   0  0  0  0  0  0
   -3.0091   -6.0636   -6.6602 O   0  0  0  0  0  0
   -0.9816   -0.3976  -10.6434 O   0  0  0  0  0  0
    0.1739   -0.8532  -11.1935 C   0  0  0  0  0  0
    0.3563   -1.9559  -11.6734 O   0  0  0  0  0  0
    1.1717    0.2718  -11.2048 C   0  0  0  0  0  0
    1.0055    1.2204  -10.0070 C   0  0  0  0  0  0
    1.6140    0.6532   -8.7180 C   0  0  0  0  0  0
    3.0607    0.2675   -8.9220 C   0  0  0  0  0  0
    4.0030    0.8966   -8.4528 O   0  0  0  0  0  0
    3.2195   -0.8358   -9.6678 O   0  0  0  0  0  0
    1.7202    2.5216  -10.3970 C   0  0  0  0  0  0
    1.1279    3.5656  -10.6242 O   0  0  0  0  0  0
    3.0501    2.4075  -10.5169 O   0  0  0  0  0  0
   -3.4276   -3.2500  -10.5009 O   0  0  0  0  0  0
   -4.2359   -3.9755  -11.3601 C   0  0  0  0  0  0
   -4.5721   -3.6065  -12.4778 O   0  0  0  0  0  0
   -4.6751   -5.3159  -10.7562 C   0  0  0  0  0  0
   -5.9087   -5.2574   -9.8026 C   0  0  0  0  0  0
   -7.2601   -4.8167  -10.3942 C   0  0  0  0  0  0
   -7.9789   -3.8175   -9.5343 C   0  0  0  0  0  0
   -8.6248   -2.8609   -9.9399 O   0  0  0  0  0  0
   -7.8610   -4.0879   -8.2254 O   0  0  0  0  0  0
   -6.1608   -6.5439   -9.0065 C   0  0  0  0  0  0
   -5.4570   -7.5297   -9.1046 O   0  0  0  0  0  0
   -7.1594   -6.4786   -8.1011 O   0  0  0  0  0  0
    3.5640    2.2815   -6.8635 H   0  0  0  0  0  0
    2.6586    3.4640   -6.2290 H   0  0  0  0  0  0
    4.0297   -0.2909   -3.4459 H   0  0  0  0  0  0
   -0.2905    0.5429   -6.8218 H   0  0  0  0  0  0
   -3.6197   -5.6067   -7.2626 H   0  0  0  0  0  0
    4.1441   -1.1225   -9.7960 H   0  0  0  0  0  0
    3.4920    3.1859  -10.9382 H   0  0  0  0  0  0
   -8.2596   -3.3318   -7.7449 H   0  0  0  0  0  0
   -7.3667   -5.5769   -7.7691 H   0  0  0  0  0  0
  1  2  1  0  0  0
  2  3  1  0  0  0
  3  4  1  0  0  0
  4  5  1  0  0  0
  5  6  1  0  0  0
  5  7  1  0  0  0
  7  8  1  0  0  0
  7 39  1  0  0  0
  8  9  1  0  0  0
  8 27  1  0  0  0
  9 10  1  0  0  0
 10 11  1  0  0  0
 10 12  1  0  0  0
 12 13  1  0  0  0
 13 14  1  0  0  0
 13 26  1  0  0  0
 14 15  1  0  0  0
 15 16  1  0  0  0
 16 17  1  0  0  0
 17 18  1  0  0  0
 18 19  1  0  0  0
 18 25  1  0  0  0
 19 20  1  0  0  0
 20 21  1  0  0  0
 20 24  1  0  0  0
 21 22  1  0  0  0
 21 23  1  0  0  0
 23 51  1  0  0  0
 23 52  1  0  0  0
 24 53  1  0  0  0
 25 54  1  0  0  0
 26 55  1  0  0  0
 27 28  1  0  0  0
 28 29  2  0  0  0
 28 30  1  0  0  0
 30 31  1  0  0  0
 31 32  1  0  0  0
 31 36  1  0  0  0
 32 33  1  0  0  0
 33 34  2  0  0  0
 33 35  1  0  0  0
 35 56  1  0  0  0
 36 37  2  0  0  0
 36 38  1  0  0  0
 38 57  1  0  0  0
 39 40  1  0  0  0
 40 41  2  0  0  0
 40 42  1  0  0  0
 42 43  1  0  0  0
 43 44  1  0  0  0
 43 48  1  0  0  0
 44 45  1  0  0  0
 45 46  2  0  0  0
 45 47  1  0  0  0
 47 58  1  0  0  0
 48 49  2  0  0  0
 48 50  1  0  0  0
 50 59  1  0  0  0
M  END
>  <AUTHOR>
    GENERATED BY OPEN BABEL 2.4.1

>  <CHROM.1>
-76.89443515,148.75170115,57.67170383,-94.13393383,175.00503157,50.84294008
-87.66802603,-88.15636028,-14.45354442,176.32766563,16.42010234,-69.59663224
-47.64837293,77.47535610,-136.93586779,149.99447655,-137.89811014,-100.78356298
149.85653310,-51.47525890,176.61420095,128.74198652,-64.50197260,34.39767177
32.80096346,78.69549291,54.12921673,110.70865108,107.76489453,-178.41275017
168.45086631,-8.70596885,82.92688404,63.56679484,-134.53158818,0.20394354
141.69583377,173.07191961,-24.56163500,-1.83119833,-1.69316304,-8.71181416
3.11976933,0.58373968,2.11096755

>  <COMPND>
    UNNAMED

>  <MASTER>
        0    0    0    0    0    0    0    0  109    0  109    0

>  <Name>
FB1.pdb

>  <RI>
0

>  <Rbt.Current_Directory>
/cluster/tossine/FB1_39T3/p3/1_clust02

>  <Rbt.Executable>
rbdock/0.1.0

>  <Rbt.Library>
librxdock.so/0.1.0

>  <Rbt.Parameter_File>
/cluster/rxdock/data/scripts/dock.prm

>  <Rbt.Receptor>
rx_2.prm

>  <SCORE>
31.5641

>  <SCORE.INTER>
1.53193

>  <SCORE.INTER.CONST>
1

>  <SCORE.INTER.POLAR>
-3.2907

>  <SCORE.INTER.REPUL>
0.685895

>  <SCORE.INTER.ROT>
32

>  <SCORE.INTER.VDW>
-28.1092

>  <SCORE.INTER.norm>
0.0306387

>  <SCORE.INTRA>
23.5325

>  <SCORE.INTRA.DIHEDRAL>
35.403

>  <SCORE.INTRA.DIHEDRAL.0>
47.3121

>  <SCORE.INTRA.POLAR>
0.0832467

>  <SCORE.INTRA.POLAR.0>
-1.47808

>  <SCORE.INTRA.REPUL>
0

>  <SCORE.INTRA.REPUL.0>
0

>  <SCORE.INTRA.VDW>
5.54797

>  <SCORE.INTRA.VDW.0>
-2.78316

>  <SCORE.INTRA.norm>
0.47065

>  <SCORE.RESTR>
6.49964

>  <SCORE.RESTR.CAVITY>
6.49964

>  <SCORE.RESTR.norm>
0.129993

>  <SCORE.SYSTEM>
0

>  <SCORE.SYSTEM.CONST>
0

>  <SCORE.SYSTEM.DIHEDRAL>
0

>  <SCORE.SYSTEM.norm>
0

>  <SCORE.heavy>
50

>  <SCORE.norm>
0.631282

$$$$
