FB1.pdb
  RxDock  10072008403D
librxdock.so/0.1.0
 59 58  0  0  0  0  0  0  0  0999 V2000
   -8.0648   -6.1088   -8.7355 C   0  0  0  0  0  0
   -7.0375   -5.1156   -9.2734 C   0  0  0  0  0  0
   -7.5692   -4.3539  -10.4987 C   0  0  0  0  0  0
   -6.5425   -3.3644  -11.1041 C   0  0  0  0  0  0
   -5.2170   -4.0224  -11.6244 C   0  0  0  0  0  0
   -5.0436   -3.6515  -13.1154 C   0  0  0  0  0  0
   -3.9345   -3.6123  -10.7848 C   0  0  0  0  0  0
   -3.5431   -2.0590  -10.7698 C   0  0  0  0  0  0
   -2.1567   -1.4598  -11.2669 C   0  0  0  0  0  0
   -1.3349   -0.5737  -10.1440 C   0  0  0  0  0  0
   -1.0440   -1.4671   -8.9393 C   0  0  0  0  0  0
    0.0175    0.1109  -10.6412 C   0  0  0  0  0  0
    0.6327    1.4684  -10.0107 C   0  0  0  0  0  0
    2.1614    1.8074  -10.0759 C   0  0  0  0  0  0
    2.8259    2.5514   -8.8293 C   0  0  0  0  0  0
    2.4224    3.9977   -8.3392 C   0  0  0  0  0  0
    2.3454    5.1589   -9.3654 C   0  0  0  0  0  0
    3.2860    6.3977   -9.1010 C   0  0  0  0  0  0
    4.0278    6.4131   -7.7587 C   0  0  0  0  0  0
    4.7272    7.7303   -7.3179 C   0  0  0  0  0  0
    3.9071    9.0432   -7.1480 C   0  0  0  0  0  0
    4.6110   10.1956   -6.4453 C   0  0  0  0  0  0
    3.3405    9.4796   -8.4383 N   0  0  0  0  0  0
    5.2536    7.4428   -5.9972 O   0  0  0  0  0  0
    4.2528    6.4512  -10.1556 O   0  0  0  0  0  0
   -0.0187    2.5344  -10.7220 O   0  0  0  0  0  0
   -4.5399   -1.3809  -11.5816 O   0  0  0  0  0  0
   -4.6286   -0.0318  -11.4502 C   0  0  0  0  0  0
   -4.2244    0.6277  -10.5116 O   0  0  0  0  0  0
   -5.2230    0.5312  -12.7116 C   0  0  0  0  0  0
   -4.5371    1.8323  -13.1579 C   0  0  0  0  0  0
   -4.8636    2.2016  -14.6106 C   0  0  0  0  0  0
   -3.8534    3.1792  -15.1648 C   0  0  0  0  0  0
   -2.6651    2.9154  -15.3134 O   0  0  0  0  0  0
   -4.3814    4.3704  -15.4829 O   0  0  0  0  0  0
   -5.0493    2.9257  -12.2102 C   0  0  0  0  0  0
   -5.9164    2.7296  -11.3723 O   0  0  0  0  0  0
   -4.5008    4.1321  -12.4098 O   0  0  0  0  0  0
   -3.9842   -4.1847   -9.4174 O   0  0  0  0  0  0
   -2.8772   -4.0336   -8.5991 C   0  0  0  0  0  0
   -1.7677   -4.4931   -8.8365 O   0  0  0  0  0  0
   -3.1895   -3.2145   -7.3398 C   0  0  0  0  0  0
   -3.1614   -4.0037   -5.9941 C   0  0  0  0  0  0
   -2.2578   -5.2469   -5.9034 C   0  0  0  0  0  0
   -2.9050   -6.4841   -6.4557 C   0  0  0  0  0  0
   -3.8807   -6.5104   -7.1932 O   0  0  0  0  0  0
   -2.2809   -7.6067   -6.0676 O   0  0  0  0  0  0
   -2.8748   -3.1442   -4.7566 C   0  0  0  0  0  0
   -2.9563   -1.9318   -4.7615 O   0  0  0  0  0  0
   -2.6272   -3.8289   -3.6203 O   0  0  0  0  0  0
    3.9199    9.1208   -9.1960 H   0  0  0  0  0  0
    3.4218   10.4968   -8.5035 H   0  0  0  0  0  0
    4.4800    7.1205   -5.4882 H   0  0  0  0  0  0
    4.8281    7.2231  -10.0019 H   0  0  0  0  0  0
    0.0491    2.3468  -11.6731 H   0  0  0  0  0  0
   -5.3218    4.4856  -15.2469 H   0  0  0  0  0  0
   -5.1232    4.8911  -12.2859 H   0  0  0  0  0  0
   -1.3729   -7.3470   -5.8040 H   0  0  0  0  0  0
   -2.4810   -3.2763   -2.8207 H   0  0  0  0  0  0
  1  2  1  0  0  0
  2  3  1  0  0  0
  3  4  1  0  0  0
  4  5  1  0  0  0
  5  6  1  0  0  0
  5  7  1  0  0  0
  7  8  1  0  0  0
  7 39  1  0  0  0
  8  9  1  0  0  0
  8 27  1  0  0  0
  9 10  1  0  0  0
 10 11  1  0  0  0
 10 12  1  0  0  0
 12 13  1  0  0  0
 13 14  1  0  0  0
 13 26  1  0  0  0
 14 15  1  0  0  0
 15 16  1  0  0  0
 16 17  1  0  0  0
 17 18  1  0  0  0
 18 19  1  0  0  0
 18 25  1  0  0  0
 19 20  1  0  0  0
 20 21  1  0  0  0
 20 24  1  0  0  0
 21 22  1  0  0  0
 21 23  1  0  0  0
 23 51  1  0  0  0
 23 52  1  0  0  0
 24 53  1  0  0  0
 25 54  1  0  0  0
 26 55  1  0  0  0
 27 28  1  0  0  0
 28 29  2  0  0  0
 28 30  1  0  0  0
 30 31  1  0  0  0
 31 32  1  0  0  0
 31 36  1  0  0  0
 32 33  1  0  0  0
 33 34  2  0  0  0
 33 35  1  0  0  0
 35 56  1  0  0  0
 36 37  2  0  0  0
 36 38  1  0  0  0
 38 57  1  0  0  0
 39 40  1  0  0  0
 40 41  2  0  0  0
 40 42  1  0  0  0
 42 43  1  0  0  0
 43 44  1  0  0  0
 43 48  1  0  0  0
 44 45  1  0  0  0
 45 46  2  0  0  0
 45 47  1  0  0  0
 47 58  1  0  0  0
 48 49  2  0  0  0
 48 50  1  0  0  0
 50 59  1  0  0  0
M  END
>  <AUTHOR>
    GENERATED BY OPEN BABEL 2.4.1

>  <CHROM.1>
-178.26622984,60.94854099,123.24560133,-61.96618308,-121.04484639,173.61347588
-123.14048492,163.69659183,59.53012613,152.29342727,154.73688364,-143.71484302
-49.54420520,-62.95568231,-49.67323552,-120.77930097,-8.36605894,-167.49371817
179.22268100,58.89919939,167.79790857,-54.03254716,-25.90071480,-20.10851469
-139.09119466,164.39570051,-160.93850957,-5.51068221,63.82355376,5.18091087
143.07510003,-62.40532729,111.37322355,27.38051215,-83.51873665,15.62678489
17.24277489,-21.05578084,-177.55023556,-1.91067262,0.33361165,-9.61602127
-2.45105242,-0.74095095,-0.66697996

>  <COMPND>
    UNNAMED

>  <MASTER>
        0    0    0    0    0    0    0    0  109    0  109    0

>  <Name>
FB1.pdb

>  <RI>
0

>  <Rbt.Current_Directory>
/cluster/tossine/FB1_39T3/p3/1_clust02

>  <Rbt.Executable>
rbdock/0.1.0

>  <Rbt.Library>
librxdock.so/0.1.0

>  <Rbt.Parameter_File>
/cluster/rxdock/data/scripts/dock.prm

>  <Rbt.Receptor>
rx_2.prm

>  <SCORE>
39.4751

>  <SCORE.INTER>
3.12999

>  <SCORE.INTER.CONST>
1

>  <SCORE.INTER.POLAR>
-1.74712

>  <SCORE.INTER.REPUL>
0.178324

>  <SCORE.INTER.ROT>
32

>  <SCORE.INTER.VDW>
-29.2214

>  <SCORE.INTER.norm>
0.0625998

>  <SCORE.INTRA>
33.9825

>  <SCORE.INTRA.DIHEDRAL>
48.3993

>  <SCORE.INTRA.DIHEDRAL.0>
47.3121

>  <SCORE.INTRA.POLAR>
1.47808

>  <SCORE.INTRA.POLAR.0>
-1.47808

>  <SCORE.INTRA.REPUL>
0

>  <SCORE.INTRA.REPUL.0>
0

>  <SCORE.INTRA.VDW>
4.75741

>  <SCORE.INTRA.VDW.0>
-2.78316

>  <SCORE.INTRA.norm>
0.679651

>  <SCORE.RESTR>
2.36256

>  <SCORE.RESTR.CAVITY>
2.36256

>  <SCORE.RESTR.norm>
0.0472512

>  <SCORE.SYSTEM>
0

>  <SCORE.SYSTEM.CONST>
0

>  <SCORE.SYSTEM.DIHEDRAL>
0

>  <SCORE.SYSTEM.norm>
0

>  <SCORE.heavy>
50

>  <SCORE.norm>
0.789502

$$$$
