FB1.pdb
  RxDock  10072007233D
librxdock.so/0.1.0
 59 58  0  0  0  0  0  0  0  0999 V2000
   -6.4928   -5.1960   -9.5637 C   0  0  0  0  0  0
   -5.6607   -6.3967   -9.1196 C   0  0  0  0  0  0
   -4.5565   -6.7314  -10.1360 C   0  0  0  0  0  0
   -3.3972   -5.7041  -10.1492 C   0  0  0  0  0  0
   -2.5609   -5.6333   -8.8240 C   0  0  0  0  0  0
   -1.1825   -5.0145   -9.1522 C   0  0  0  0  0  0
   -3.2822   -4.8284   -7.6622 C   0  0  0  0  0  0
   -3.0795   -5.3714   -6.1689 C   0  0  0  0  0  0
   -2.6302   -6.8476   -5.7852 C   0  0  0  0  0  0
   -3.7631   -7.7366   -4.9803 C   0  0  0  0  0  0
   -3.6036   -9.2024   -5.3806 C   0  0  0  0  0  0
   -3.7545   -7.6125   -3.3900 C   0  0  0  0  0  0
   -3.2031   -8.7616   -2.3929 C   0  0  0  0  0  0
   -2.6375   -8.4368   -0.9678 C   0  0  0  0  0  0
   -3.6526   -7.9165    0.1494 C   0  0  0  0  0  0
   -4.0535   -8.7378    1.4375 C   0  0  0  0  0  0
   -4.7504  -10.1151    1.2800 C   0  0  0  0  0  0
   -5.0420  -10.9144    2.6086 C   0  0  0  0  0  0
   -4.6656  -10.2131    3.9198 C   0  0  0  0  0  0
   -3.2120  -10.3705    4.4493 C   0  0  0  0  0  0
   -2.6271   -9.3508    5.4708 C   0  0  0  0  0  0
   -3.5876   -8.8239    6.5277 C   0  0  0  0  0  0
   -1.3963   -9.8762    6.0917 N   0  0  0  0  0  0
   -3.2101  -11.6427    5.1458 O   0  0  0  0  0  0
   -6.4400  -11.2210    2.6419 O   0  0  0  0  0  0
   -4.3309   -9.6225   -2.1617 O   0  0  0  0  0  0
   -2.0721   -4.5190   -5.5598 O   0  0  0  0  0  0
   -2.5131   -3.4118   -4.9080 C   0  0  0  0  0  0
   -3.6741   -3.0888   -4.7429 O   0  0  0  0  0  0
   -1.3245   -2.6947   -4.3298 C   0  0  0  0  0  0
   -0.3285   -2.2384   -5.4078 C   0  0  0  0  0  0
   -0.9488   -1.2466   -6.4003 C   0  0  0  0  0  0
    0.0780   -0.7562   -7.3946 C   0  0  0  0  0  0
    1.1612   -1.3016   -7.5757 O   0  0  0  0  0  0
   -0.3091    0.3380   -8.0667 O   0  0  0  0  0  0
    0.8318   -1.5723   -4.6554 C   0  0  0  0  0  0
    1.0227   -0.3657   -4.6575 O   0  0  0  0  0  0
    1.6520   -2.4300   -4.0328 O   0  0  0  0  0  0
   -3.0052   -3.3750   -7.7659 O   0  0  0  0  0  0
   -3.1252   -2.7679   -9.0049 C   0  0  0  0  0  0
   -3.9602   -3.0665   -9.8487 O   0  0  0  0  0  0
   -2.0843   -1.6604   -9.2157 C   0  0  0  0  0  0
   -1.8161   -1.2563  -10.6987 C   0  0  0  0  0  0
   -2.5441   -0.0185  -11.2541 C   0  0  0  0  0  0
   -3.9645   -0.3018  -11.6496 C   0  0  0  0  0  0
   -4.9185   -0.3658  -10.8865 O   0  0  0  0  0  0
   -4.1052   -0.4677  -12.9736 O   0  0  0  0  0  0
   -0.3331   -1.1103  -11.0616 C   0  0  0  0  0  0
    0.2635   -1.9224  -11.7407 O   0  0  0  0  0  0
    0.2495    0.0410  -10.6661 O   0  0  0  0  0  0
   -1.0369  -10.6427    5.5245 H   0  0  0  0  0  0
   -1.6395  -10.3035    6.9882 H   0  0  0  0  0  0
   -3.5196  -12.2902    4.4777 H   0  0  0  0  0  0
   -6.5379  -12.1776    2.8024 H   0  0  0  0  0  0
   -5.0149   -9.1056   -1.7039 H   0  0  0  0  0  0
    0.2530    0.5801   -8.8276 H   0  0  0  0  0  0
    1.2903   -3.3456   -3.9350 H   0  0  0  0  0  0
   -5.0687   -0.4816  -13.1546 H   0  0  0  0  0  0
    1.1901    0.1478  -10.9307 H   0  0  0  0  0  0
  1  2  1  0  0  0
  2  3  1  0  0  0
  3  4  1  0  0  0
  4  5  1  0  0  0
  5  6  1  0  0  0
  5  7  1  0  0  0
  7  8  1  0  0  0
  7 39  1  0  0  0
  8  9  1  0  0  0
  8 27  1  0  0  0
  9 10  1  0  0  0
 10 11  1  0  0  0
 10 12  1  0  0  0
 12 13  1  0  0  0
 13 14  1  0  0  0
 13 26  1  0  0  0
 14 15  1  0  0  0
 15 16  1  0  0  0
 16 17  1  0  0  0
 17 18  1  0  0  0
 18 19  1  0  0  0
 18 25  1  0  0  0
 19 20  1  0  0  0
 20 21  1  0  0  0
 20 24  1  0  0  0
 21 22  1  0  0  0
 21 23  1  0  0  0
 23 51  1  0  0  0
 23 52  1  0  0  0
 24 53  1  0  0  0
 25 54  1  0  0  0
 26 55  1  0  0  0
 27 28  1  0  0  0
 28 29  2  0  0  0
 28 30  1  0  0  0
 30 31  1  0  0  0
 31 32  1  0  0  0
 31 36  1  0  0  0
 32 33  1  0  0  0
 33 34  2  0  0  0
 33 35  1  0  0  0
 35 56  1  0  0  0
 36 37  2  0  0  0
 36 38  1  0  0  0
 38 57  1  0  0  0
 39 40  1  0  0  0
 40 41  2  0  0  0
 40 42  1  0  0  0
 42 43  1  0  0  0
 43 44  1  0  0  0
 43 48  1  0  0  0
 44 45  1  0  0  0
 45 46  2  0  0  0
 45 47  1  0  0  0
 47 58  1  0  0  0
 48 49  2  0  0  0
 48 50  1  0  0  0
 50 59  1  0  0  0
M  END
>  <AUTHOR>
    GENERATED BY OPEN BABEL 2.4.1

>  <CHROM.1>
71.96483220,64.83645898,158.69153082,143.72134196,-20.39192761,46.45664860
-114.44967144,90.19807259,147.25814722,-105.78013230,153.21787066,68.60183890
-63.72913851,112.22923766,-60.70062593,176.45115099,2.84058992,-86.74689133
128.13621276,159.71574206,37.16501589,55.97063747,17.49695095,2.82885657
60.85744525,61.45476448,176.60191142,-107.75744334,15.51146264,-169.01202019
-15.04420080,35.48741489,160.18357796,97.59566106,-79.74620358,106.47675658
80.28455084,-169.84608850,-177.67723017,-2.64526970,-5.03765858,-4.99174617
1.40720579,-0.81441930,-1.12275349

>  <COMPND>
    UNNAMED

>  <MASTER>
        0    0    0    0    0    0    0    0  109    0  109    0

>  <Name>
FB1.pdb

>  <RI>
0

>  <Rbt.Current_Directory>
/cluster/tossine/FB1_39T3/p3/1_clust02

>  <Rbt.Executable>
rbdock/0.1.0

>  <Rbt.Library>
librxdock.so/0.1.0

>  <Rbt.Parameter_File>
/cluster/rxdock/data/scripts/dock.prm

>  <Rbt.Receptor>
rx_0.prm

>  <SCORE>
73.1097

>  <SCORE.INTER>
50.6257

>  <SCORE.INTER.CONST>
1

>  <SCORE.INTER.POLAR>
-0.0965134

>  <SCORE.INTER.REPUL>
0.402337

>  <SCORE.INTER.ROT>
32

>  <SCORE.INTER.VDW>
11.5421

>  <SCORE.INTER.norm>
1.01251

>  <SCORE.INTRA>
20.992

>  <SCORE.INTRA.DIHEDRAL>
35.7439

>  <SCORE.INTRA.DIHEDRAL.0>
47.3121

>  <SCORE.INTRA.POLAR>
0.825905

>  <SCORE.INTRA.POLAR.0>
-1.47808

>  <SCORE.INTRA.REPUL>
0

>  <SCORE.INTRA.REPUL.0>
0

>  <SCORE.INTRA.VDW>
0.311935

>  <SCORE.INTRA.VDW.0>
-2.78316

>  <SCORE.INTRA.norm>
0.41984

>  <SCORE.RESTR>
1.492

>  <SCORE.RESTR.CAVITY>
1.492

>  <SCORE.RESTR.norm>
0.02984

>  <SCORE.SYSTEM>
0

>  <SCORE.SYSTEM.CONST>
0

>  <SCORE.SYSTEM.DIHEDRAL>
0

>  <SCORE.SYSTEM.norm>
0

>  <SCORE.heavy>
50

>  <SCORE.norm>
1.46219

$$$$
