FB1.pdb
  RxDock  10072008393D
librxdock.so/0.1.0
 59 58  0  0  0  0  0  0  0  0999 V2000
  -11.2040    0.4506    1.3348 C   0  0  0  0  0  0
  -12.1302    1.1669    0.3547 C   0  0  0  0  0  0
  -13.5777    0.6602    0.4653 C   0  0  0  0  0  0
  -13.7722   -0.7770   -0.0790 C   0  0  0  0  0  0
  -13.0396   -1.8983    0.7372 C   0  0  0  0  0  0
  -13.5982   -1.8931    2.1789 C   0  0  0  0  0  0
  -13.1641   -3.3398    0.0856 C   0  0  0  0  0  0
  -12.5483   -3.5288   -1.3811 C   0  0  0  0  0  0
  -12.7133   -4.8284   -2.2823 C   0  0  0  0  0  0
  -11.3387   -5.7174   -2.4861 C   0  0  0  0  0  0
  -10.7253   -5.9839   -1.1125 C   0  0  0  0  0  0
  -11.5022   -7.0941   -3.2751 C   0  0  0  0  0  0
  -10.2698   -8.0650   -3.6715 C   0  0  0  0  0  0
   -9.1046   -7.6024   -4.6119 C   0  0  0  0  0  0
   -8.4999   -8.6592   -5.6447 C   0  0  0  0  0  0
   -7.2309   -9.5549   -5.3588 C   0  0  0  0  0  0
   -5.8352   -8.8876   -5.2391 C   0  0  0  0  0  0
   -4.8304   -9.1349   -6.4301 C   0  0  0  0  0  0
   -5.4575   -9.3800   -7.8082 C   0  0  0  0  0  0
   -5.8576   -8.1463   -8.6662 C   0  0  0  0  0  0
   -6.8772   -7.1019   -8.1232 C   0  0  0  0  0  0
   -6.6415   -5.6526   -8.5252 C   0  0  0  0  0  0
   -8.2616   -7.5138   -8.4232 N   0  0  0  0  0  0
   -4.6225   -7.4072   -8.8457 O   0  0  0  0  0  0
   -3.9641   -7.9986   -6.5202 O   0  0  0  0  0  0
   -9.6374   -8.3883   -2.4217 O   0  0  0  0  0  0
  -13.0968   -2.4557   -2.1935 O   0  0  0  0  0  0
  -12.4354   -2.1500   -3.3399 C   0  0  0  0  0  0
  -11.5984   -2.8379   -3.8929 O   0  0  0  0  0  0
  -12.9836   -0.8560   -3.8752 C   0  0  0  0  0  0
  -11.8813    0.1707   -4.1806 C   0  0  0  0  0  0
  -11.8154    0.5386   -5.6685 C   0  0  0  0  0  0
  -10.5731    1.3415   -5.9769 C   0  0  0  0  0  0
  -10.0005    1.3156   -7.0610 O   0  0  0  0  0  0
  -10.1526    2.0920   -4.9479 O   0  0  0  0  0  0
  -12.2201    1.4140   -3.3466 C   0  0  0  0  0  0
  -11.4919    1.8448   -2.4655 O   0  0  0  0  0  0
  -13.4089    1.9635   -3.6309 O   0  0  0  0  0  0
  -12.6997   -4.3925    1.0216 O   0  0  0  0  0  0
  -13.5256   -4.7491    2.0746 C   0  0  0  0  0  0
  -14.7457   -4.8222    2.0087 O   0  0  0  0  0  0
  -12.7392   -5.0500    3.3573 C   0  0  0  0  0  0
  -12.0579   -3.8223    4.0379 C   0  0  0  0  0  0
  -11.5170   -3.9964    5.4688 C   0  0  0  0  0  0
  -11.6365   -2.7496    6.2968 C   0  0  0  0  0  0
  -11.4691   -1.6067    5.8939 O   0  0  0  0  0  0
  -11.9761   -3.0088    7.5687 O   0  0  0  0  0  0
  -10.9443   -3.1704    3.2089 C   0  0  0  0  0  0
  -10.2962   -3.7782    2.3799 O   0  0  0  0  0  0
  -10.7969   -1.8400    3.3813 O   0  0  0  0  0  0
   -8.3833   -8.4913   -8.1620 H   0  0  0  0  0  0
   -8.3962   -7.4933   -9.4366 H   0  0  0  0  0  0
   -4.7493   -6.9149   -9.6841 H   0  0  0  0  0  0
   -4.5168   -7.2020   -6.6215 H   0  0  0  0  0  0
  -10.2217   -8.9951   -1.9370 H   0  0  0  0  0  0
   -9.2678    2.4903   -5.0569 H   0  0  0  0  0  0
  -13.8963    1.5257   -4.3722 H   0  0  0  0  0  0
  -12.2505   -2.1555    7.9661 H   0  0  0  0  0  0
  -11.3340   -1.4486    4.1055 H   0  0  0  0  0  0
  1  2  1  0  0  0
  2  3  1  0  0  0
  3  4  1  0  0  0
  4  5  1  0  0  0
  5  6  1  0  0  0
  5  7  1  0  0  0
  7  8  1  0  0  0
  7 39  1  0  0  0
  8  9  1  0  0  0
  8 27  1  0  0  0
  9 10  1  0  0  0
 10 11  1  0  0  0
 10 12  1  0  0  0
 12 13  1  0  0  0
 13 14  1  0  0  0
 13 26  1  0  0  0
 14 15  1  0  0  0
 15 16  1  0  0  0
 16 17  1  0  0  0
 17 18  1  0  0  0
 18 19  1  0  0  0
 18 25  1  0  0  0
 19 20  1  0  0  0
 20 21  1  0  0  0
 20 24  1  0  0  0
 21 22  1  0  0  0
 21 23  1  0  0  0
 23 51  1  0  0  0
 23 52  1  0  0  0
 24 53  1  0  0  0
 25 54  1  0  0  0
 26 55  1  0  0  0
 27 28  1  0  0  0
 28 29  2  0  0  0
 28 30  1  0  0  0
 30 31  1  0  0  0
 31 32  1  0  0  0
 31 36  1  0  0  0
 32 33  1  0  0  0
 33 34  2  0  0  0
 33 35  1  0  0  0
 35 56  1  0  0  0
 36 37  2  0  0  0
 36 38  1  0  0  0
 38 57  1  0  0  0
 39 40  1  0  0  0
 40 41  2  0  0  0
 40 42  1  0  0  0
 42 43  1  0  0  0
 43 44  1  0  0  0
 43 48  1  0  0  0
 44 45  1  0  0  0
 45 46  2  0  0  0
 45 47  1  0  0  0
 47 58  1  0  0  0
 48 49  2  0  0  0
 48 50  1  0  0  0
 50 59  1  0  0  0
M  END
>  <AUTHOR>
    GENERATED BY OPEN BABEL 2.4.1

>  <CHROM.1>
-70.73003622,66.25156836,60.96243510,61.23988087,-172.38169567,75.65203327
-109.97373044,160.50447588,50.76182838,175.63476217,-61.37157954,-142.51937083
71.93290975,-94.29082999,-67.85397714,-108.24178703,28.62673166,84.05653011
-55.87842290,-58.71791809,145.41209723,153.74436523,47.84607631,15.66084767
128.53741961,117.10961856,-169.44840023,117.31857641,149.99669554,169.10827082
-2.91761279,37.42973461,69.14402241,167.12590150,-146.24250531,-26.36218258
-37.71656292,-165.97870290,7.87205884,-10.61716438,-3.71772504,-1.99957147
2.79876104,-1.06565194,2.21705113

>  <COMPND>
    UNNAMED

>  <MASTER>
        0    0    0    0    0    0    0    0  109    0  109    0

>  <Name>
FB1.pdb

>  <RI>
0

>  <Rbt.Current_Directory>
/cluster/tossine/FB1_39T3/p3/1_clust02

>  <Rbt.Executable>
rbdock/0.1.0

>  <Rbt.Library>
librxdock.so/0.1.0

>  <Rbt.Parameter_File>
/cluster/rxdock/data/scripts/dock.prm

>  <Rbt.Receptor>
rx_2.prm

>  <SCORE>
25.855

>  <SCORE.INTER>
7.4961

>  <SCORE.INTER.CONST>
1

>  <SCORE.INTER.POLAR>
-0.763709

>  <SCORE.INTER.REPUL>
0.363031

>  <SCORE.INTER.ROT>
32

>  <SCORE.INTER.VDW>
-29.1224

>  <SCORE.INTER.norm>
0.149922

>  <SCORE.INTRA>
17.952

>  <SCORE.INTRA.DIHEDRAL>
21.4563

>  <SCORE.INTRA.DIHEDRAL.0>
47.3121

>  <SCORE.INTRA.POLAR>
0.969632

>  <SCORE.INTRA.POLAR.0>
-1.47808

>  <SCORE.INTRA.REPUL>
0

>  <SCORE.INTRA.REPUL.0>
0

>  <SCORE.INTRA.VDW>
3.92713

>  <SCORE.INTRA.VDW.0>
-2.78316

>  <SCORE.INTRA.norm>
0.35904

>  <SCORE.RESTR>
0.406883

>  <SCORE.RESTR.CAVITY>
0.406883

>  <SCORE.RESTR.norm>
0.00813766

>  <SCORE.SYSTEM>
0

>  <SCORE.SYSTEM.CONST>
0

>  <SCORE.SYSTEM.DIHEDRAL>
0

>  <SCORE.SYSTEM.norm>
0

>  <SCORE.heavy>
50

>  <SCORE.norm>
0.5171

$$$$
