FB1.pdb
  RxDock  10072007163D
librxdock.so/0.1.0
 59 58  0  0  0  0  0  0  0  0999 V2000
   -3.7888   -2.6562   -2.0367 C   0  0  0  0  0  0
   -4.3490   -2.2854   -3.4078 C   0  0  0  0  0  0
   -3.5631   -2.9586   -4.5451 C   0  0  0  0  0  0
   -2.1262   -2.4052   -4.7146 C   0  0  0  0  0  0
   -1.8984   -1.5392   -6.0025 C   0  0  0  0  0  0
   -0.7774   -0.5160   -5.7076 C   0  0  0  0  0  0
   -1.5570   -2.3993   -7.2916 C   0  0  0  0  0  0
   -0.6261   -3.6857   -7.0801 C   0  0  0  0  0  0
   -1.0724   -5.1902   -7.3362 C   0  0  0  0  0  0
   -2.4776   -5.6383   -6.5975 C   0  0  0  0  0  0
   -3.6348   -5.3862   -7.5626 C   0  0  0  0  0  0
   -2.5435   -7.1403   -6.0640 C   0  0  0  0  0  0
   -3.8649   -7.8180   -5.4211 C   0  0  0  0  0  0
   -4.3589   -9.2482   -5.8293 C   0  0  0  0  0  0
   -4.7556  -10.2719   -4.6701 C   0  0  0  0  0  0
   -5.8181   -9.9683   -3.5416 C   0  0  0  0  0  0
   -5.4997  -10.3448   -2.0704 C   0  0  0  0  0  0
   -5.5206  -11.8818   -1.7151 C   0  0  0  0  0  0
   -4.7361  -12.3010   -0.4656 C   0  0  0  0  0  0
   -5.0279  -11.5615    0.8709 C   0  0  0  0  0  0
   -4.8778  -10.0144    0.9685 C   0  0  0  0  0  0
   -4.7602   -9.4322    2.3701 C   0  0  0  0  0  0
   -3.7803   -9.5375    0.1056 N   0  0  0  0  0  0
   -6.4304  -11.8200    1.1354 O   0  0  0  0  0  0
   -6.8863  -12.2781   -1.5488 O   0  0  0  0  0  0
   -3.5881   -7.9043   -4.0131 O   0  0  0  0  0  0
    0.5265   -3.4999   -7.9458 O   0  0  0  0  0  0
    1.2082   -2.3313   -7.8231 C   0  0  0  0  0  0
    1.4213   -1.7280   -6.7887 O   0  0  0  0  0  0
    1.7494   -1.9519   -9.1738 C   0  0  0  0  0  0
    1.9097   -0.4323   -9.3400 C   0  0  0  0  0  0
    1.8687    0.0067  -10.8094 C   0  0  0  0  0  0
    2.7808    1.1869  -11.0513 C   0  0  0  0  0  0
    2.3852    2.3450  -11.1298 O   0  0  0  0  0  0
    4.0729    0.8479  -11.1712 O   0  0  0  0  0  0
    0.7432    0.2016   -8.5696 C   0  0  0  0  0  0
    0.9013    0.9994   -7.6580 O   0  0  0  0  0  0
   -0.4681   -0.2301   -8.9467 O   0  0  0  0  0  0
   -2.7839   -2.7231   -8.0595 O   0  0  0  0  0  0
   -3.2747   -1.7793   -8.9464 C   0  0  0  0  0  0
   -3.2921   -0.5729   -8.7402 O   0  0  0  0  0  0
   -3.8043   -2.4131  -10.2395 C   0  0  0  0  0  0
   -3.4171   -1.6797  -11.5612 C   0  0  0  0  0  0
   -1.9774   -1.1525  -11.7008 C   0  0  0  0  0  0
   -0.9520   -2.0880  -11.1283 C   0  0  0  0  0  0
   -1.1156   -2.8222  -10.1636 O   0  0  0  0  0  0
    0.2042   -2.0607  -11.8087 O   0  0  0  0  0  0
   -3.7398   -2.4601  -12.8415 C   0  0  0  0  0  0
   -4.0930   -3.6228  -12.8347 O   0  0  0  0  0  0
   -3.7104   -1.7396  -13.9822 O   0  0  0  0  0  0
   -2.8894   -9.8225    0.5101 H   0  0  0  0  0  0
   -3.7659   -8.5155    0.1303 H   0  0  0  0  0  0
   -6.8830  -11.6132    0.2905 H   0  0  0  0  0  0
   -7.3748  -12.0322   -2.3559 H   0  0  0  0  0  0
   -4.4368   -7.9094   -3.5396 H   0  0  0  0  0  0
    4.2434   -0.1049  -11.3001 H   0  0  0  0  0  0
   -1.2137    0.0999   -8.3864 H   0  0  0  0  0  0
   -0.0201   -1.8327  -12.7355 H   0  0  0  0  0  0
   -3.7848   -2.2627  -14.8110 H   0  0  0  0  0  0
  1  2  1  0  0  0
  2  3  1  0  0  0
  3  4  1  0  0  0
  4  5  1  0  0  0
  5  6  1  0  0  0
  5  7  1  0  0  0
  7  8  1  0  0  0
  7 39  1  0  0  0
  8  9  1  0  0  0
  8 27  1  0  0  0
  9 10  1  0  0  0
 10 11  1  0  0  0
 10 12  1  0  0  0
 12 13  1  0  0  0
 13 14  1  0  0  0
 13 26  1  0  0  0
 14 15  1  0  0  0
 15 16  1  0  0  0
 16 17  1  0  0  0
 17 18  1  0  0  0
 18 19  1  0  0  0
 18 25  1  0  0  0
 19 20  1  0  0  0
 20 21  1  0  0  0
 20 24  1  0  0  0
 21 22  1  0  0  0
 21 23  1  0  0  0
 23 51  1  0  0  0
 23 52  1  0  0  0
 24 53  1  0  0  0
 25 54  1  0  0  0
 26 55  1  0  0  0
 27 28  1  0  0  0
 28 29  2  0  0  0
 28 30  1  0  0  0
 30 31  1  0  0  0
 31 32  1  0  0  0
 31 36  1  0  0  0
 32 33  1  0  0  0
 33 34  2  0  0  0
 33 35  1  0  0  0
 35 56  1  0  0  0
 36 37  2  0  0  0
 36 38  1  0  0  0
 38 57  1  0  0  0
 39 40  1  0  0  0
 40 41  2  0  0  0
 40 42  1  0  0  0
 42 43  1  0  0  0
 43 44  1  0  0  0
 43 48  1  0  0  0
 44 45  1  0  0  0
 45 46  2  0  0  0
 45 47  1  0  0  0
 47 58  1  0  0  0
 48 49  2  0  0  0
 48 50  1  0  0  0
 50 59  1  0  0  0
M  END
>  <AUTHOR>
    GENERATED BY OPEN BABEL 2.4.1

>  <CHROM.1>
-69.17143537,-109.07023542,151.37673412,-37.54812811,116.26261490,83.19566641
-51.43412964,53.04960764,91.57275065,-174.79263500,133.88478992,132.86438013
154.48131485,55.10537939,-135.80381563,-72.21309137,158.40511804,52.79917946
54.73826726,-57.08255129,-161.76699666,-48.74475203,-71.14188001,37.12622585
151.74535421,-155.44672312,-145.99890374,122.12565428,-100.43410134,13.80839045
173.55130266,-39.09738569,-137.03155344,41.91929354,39.18049366,-9.76605764
-32.58769790,-29.37556136,171.31168389,-2.23008700,-4.32380610,-6.68774863
-2.15774659,-0.85881349,-1.22910232

>  <COMPND>
    UNNAMED

>  <MASTER>
        0    0    0    0    0    0    0    0  109    0  109    0

>  <Name>
FB1.pdb

>  <RI>
0

>  <Rbt.Current_Directory>
/cluster/tossine/FB1_39T3/p3/1_clust02

>  <Rbt.Executable>
rbdock/0.1.0

>  <Rbt.Library>
librxdock.so/0.1.0

>  <Rbt.Parameter_File>
/cluster/rxdock/data/scripts/dock.prm

>  <Rbt.Receptor>
rx_0.prm

>  <SCORE>
30.838

>  <SCORE.INTER>
5.71805

>  <SCORE.INTER.CONST>
1

>  <SCORE.INTER.POLAR>
-3.18707

>  <SCORE.INTER.REPUL>
0.537987

>  <SCORE.INTER.ROT>
32

>  <SCORE.INTER.VDW>
-23.5359

>  <SCORE.INTER.norm>
0.114361

>  <SCORE.INTRA>
23.4736

>  <SCORE.INTRA.DIHEDRAL>
40.7109

>  <SCORE.INTRA.DIHEDRAL.0>
47.3121

>  <SCORE.INTRA.POLAR>
0.703268

>  <SCORE.INTRA.POLAR.0>
-1.47808

>  <SCORE.INTRA.REPUL>
0.00285211

>  <SCORE.INTRA.REPUL.0>
0

>  <SCORE.INTRA.VDW>
0.7128

>  <SCORE.INTRA.VDW.0>
-2.78316

>  <SCORE.INTRA.norm>
0.469472

>  <SCORE.RESTR>
1.64632

>  <SCORE.RESTR.CAVITY>
1.64632

>  <SCORE.RESTR.norm>
0.0329264

>  <SCORE.SYSTEM>
0

>  <SCORE.SYSTEM.CONST>
0

>  <SCORE.SYSTEM.DIHEDRAL>
0

>  <SCORE.SYSTEM.norm>
0

>  <SCORE.heavy>
50

>  <SCORE.norm>
0.616759

$$$$
