FB1.pdb
  RxDock  10072009543D
librxdock.so/0.1.0
 59 58  0  0  0  0  0  0  0  0999 V2000
   -5.3104   -8.8985   -5.6381 C   0  0  0  0  0  0
   -4.1049   -8.1937   -5.0205 C   0  0  0  0  0  0
   -3.0297   -7.8770   -6.0731 C   0  0  0  0  0  0
   -2.6264   -6.3818   -6.1133 C   0  0  0  0  0  0
   -2.7111   -5.7116   -7.5289 C   0  0  0  0  0  0
   -4.1358   -5.9342   -8.0870 C   0  0  0  0  0  0
   -2.3388   -4.1691   -7.5226 C   0  0  0  0  0  0
   -1.5586   -3.6056   -8.8032 C   0  0  0  0  0  0
   -0.3945   -4.3669   -9.5736 C   0  0  0  0  0  0
    0.6919   -3.3906  -10.3403 C   0  0  0  0  0  0
    1.6381   -4.2671  -11.1592 C   0  0  0  0  0  0
    0.0777   -2.2508  -11.2721 C   0  0  0  0  0  0
    0.4948   -0.6894  -11.1908 C   0  0  0  0  0  0
   -0.4310    0.3947  -10.5398 C   0  0  0  0  0  0
    0.2503    1.5558   -9.6813 C   0  0  0  0  0  0
    0.6180    2.9826  -10.2502 C   0  0  0  0  0  0
    0.7311    4.1872   -9.2787 C   0  0  0  0  0  0
    1.4536    3.9180   -7.9022 C   0  0  0  0  0  0
    1.5057    2.4576   -7.4364 C   0  0  0  0  0  0
    1.8402    2.1709   -5.9450 C   0  0  0  0  0  0
    1.5891    0.7602   -5.3347 C   0  0  0  0  0  0
    2.6600    0.2294   -4.3920 C   0  0  0  0  0  0
    0.2542    0.6876   -4.7107 N   0  0  0  0  0  0
    3.2727    2.3741   -5.8439 O   0  0  0  0  0  0
    2.7939    4.4112   -8.0030 O   0  0  0  0  0  0
    1.7020   -0.6695  -10.4106 O   0  0  0  0  0  0
   -2.5680   -3.3672   -9.8214 O   0  0  0  0  0  0
   -2.7474   -2.0820  -10.2231 C   0  0  0  0  0  0
   -2.5882   -1.0866   -9.5424 O   0  0  0  0  0  0
   -3.0804   -2.0837  -11.6896 C   0  0  0  0  0  0
   -4.5095   -2.5753  -11.9699 C   0  0  0  0  0  0
   -5.5782   -1.6340  -11.3996 C   0  0  0  0  0  0
   -5.4990   -0.2676  -12.0401 C   0  0  0  0  0  0
   -6.4534    0.4975  -12.1261 O   0  0  0  0  0  0
   -4.2784    0.0334  -12.5076 O   0  0  0  0  0  0
   -4.6375   -2.6511  -13.4976 C   0  0  0  0  0  0
   -4.3163   -1.7357  -14.2400 O   0  0  0  0  0  0
   -5.1789   -3.7900  -13.9513 O   0  0  0  0  0  0
   -3.5166   -3.3354   -7.1798 O   0  0  0  0  0  0
   -3.4258   -2.4811   -6.0936 C   0  0  0  0  0  0
   -3.1689   -1.2865   -6.1667 O   0  0  0  0  0  0
   -3.6858   -3.1992   -4.7627 C   0  0  0  0  0  0
   -2.6382   -2.9383   -3.6363 C   0  0  0  0  0  0
   -1.9546   -1.5595   -3.5895 C   0  0  0  0  0  0
   -0.5200   -1.6306   -3.1522 C   0  0  0  0  0  0
    0.4447   -1.7747   -3.8905 O   0  0  0  0  0  0
   -0.3811   -1.4978   -1.8243 O   0  0  0  0  0  0
   -3.1364   -3.2451   -2.2186 C   0  0  0  0  0  0
   -3.5450   -2.3864   -1.4620 O   0  0  0  0  0  0
   -3.1943   -4.5541   -1.8954 O   0  0  0  0  0  0
   -0.3619    0.1331   -5.3035 H   0  0  0  0  0  0
   -0.1561    1.6241   -4.7073 H   0  0  0  0  0  0
    3.4237    2.6018   -4.9023 H   0  0  0  0  0  0
    2.7531    5.3589   -8.2283 H   0  0  0  0  0  0
    2.3834   -1.1616  -10.8983 H   0  0  0  0  0  0
   -4.0569    0.9844  -12.5121 H   0  0  0  0  0  0
   -5.9525   -4.1138  -13.4265 H   0  0  0  0  0  0
   -0.1631   -2.3871   -1.4739 H   0  0  0  0  0  0
   -3.4351   -4.7456   -0.9619 H   0  0  0  0  0  0
  1  2  1  0  0  0
  2  3  1  0  0  0
  3  4  1  0  0  0
  4  5  1  0  0  0
  5  6  1  0  0  0
  5  7  1  0  0  0
  7  8  1  0  0  0
  7 39  1  0  0  0
  8  9  1  0  0  0
  8 27  1  0  0  0
  9 10  1  0  0  0
 10 11  1  0  0  0
 10 12  1  0  0  0
 12 13  1  0  0  0
 13 14  1  0  0  0
 13 26  1  0  0  0
 14 15  1  0  0  0
 15 16  1  0  0  0
 16 17  1  0  0  0
 17 18  1  0  0  0
 18 19  1  0  0  0
 18 25  1  0  0  0
 19 20  1  0  0  0
 20 21  1  0  0  0
 20 24  1  0  0  0
 21 22  1  0  0  0
 21 23  1  0  0  0
 23 51  1  0  0  0
 23 52  1  0  0  0
 24 53  1  0  0  0
 25 54  1  0  0  0
 26 55  1  0  0  0
 27 28  1  0  0  0
 28 29  2  0  0  0
 28 30  1  0  0  0
 30 31  1  0  0  0
 31 32  1  0  0  0
 31 36  1  0  0  0
 32 33  1  0  0  0
 33 34  2  0  0  0
 33 35  1  0  0  0
 35 56  1  0  0  0
 36 37  2  0  0  0
 36 38  1  0  0  0
 38 57  1  0  0  0
 39 40  1  0  0  0
 40 41  2  0  0  0
 40 42  1  0  0  0
 42 43  1  0  0  0
 43 44  1  0  0  0
 43 48  1  0  0  0
 44 45  1  0  0  0
 45 46  2  0  0  0
 45 47  1  0  0  0
 47 58  1  0  0  0
 48 49  2  0  0  0
 48 50  1  0  0  0
 50 59  1  0  0  0
M  END
>  <AUTHOR>
    GENERATED BY OPEN BABEL 2.4.1

>  <CHROM.1>
125.35492307,-126.95250665,54.33460288,144.40500683,-40.27884711,122.96857966
-152.41101647,116.21666755,-173.44725443,129.25518713,-104.78929396,141.84777188
63.31947325,95.58987305,155.58495286,41.59279221,-21.78705632,-163.44394921
57.70651243,165.77724571,139.14364240,154.86310627,106.15542784,-30.76734860
73.59136713,65.29926332,62.39627802,-49.49084879,154.18445311,-150.85050864
41.83605094,97.74370053,131.15909715,32.33334064,-144.35016274,-98.74037279
89.87546579,106.38649714,174.67029382,-1.68922908,-1.78773351,-7.92209702
2.26013192,0.88841124,1.96646757

>  <COMPND>
    UNNAMED

>  <MASTER>
        0    0    0    0    0    0    0    0  109    0  109    0

>  <Name>
FB1.pdb

>  <RI>
0

>  <Rbt.Current_Directory>
/cluster/tossine/FB1_39T3/p3/1_clust02

>  <Rbt.Executable>
rbdock/0.1.0

>  <Rbt.Library>
librxdock.so/0.1.0

>  <Rbt.Parameter_File>
/cluster/rxdock/data/scripts/dock.prm

>  <Rbt.Receptor>
rx_4.prm

>  <SCORE>
161.778

>  <SCORE.INTER>
91.8929

>  <SCORE.INTER.CONST>
1

>  <SCORE.INTER.POLAR>
-1.58499

>  <SCORE.INTER.REPUL>
2.26405

>  <SCORE.INTER.ROT>
32

>  <SCORE.INTER.VDW>
48.5615

>  <SCORE.INTER.norm>
1.83786

>  <SCORE.INTRA>
67.4943

>  <SCORE.INTRA.DIHEDRAL>
111.177

>  <SCORE.INTRA.DIHEDRAL.0>
47.3121

>  <SCORE.INTRA.POLAR>
1.47808

>  <SCORE.INTRA.POLAR.0>
-1.47808

>  <SCORE.INTRA.REPUL>
0

>  <SCORE.INTRA.REPUL.0>
0

>  <SCORE.INTRA.VDW>
6.88042

>  <SCORE.INTRA.VDW.0>
-2.78316

>  <SCORE.INTRA.norm>
1.34989

>  <SCORE.RESTR>
2.39063

>  <SCORE.RESTR.CAVITY>
2.39063

>  <SCORE.RESTR.norm>
0.0478126

>  <SCORE.SYSTEM>
0

>  <SCORE.SYSTEM.CONST>
0

>  <SCORE.SYSTEM.DIHEDRAL>
0

>  <SCORE.SYSTEM.norm>
0

>  <SCORE.heavy>
50

>  <SCORE.norm>
3.23556

$$$$
