FB1.pdb
  RxDock  10072009153D
librxdock.so/0.1.0
 59 58  0  0  0  0  0  0  0  0999 V2000
    0.4674    2.8626   -8.3568 C   0  0  0  0  0  0
    0.2801    2.9735   -6.8455 C   0  0  0  0  0  0
    0.9972    1.8371   -6.0980 C   0  0  0  0  0  0
    0.1950    0.5122   -6.0724 C   0  0  0  0  0  0
    1.0630   -0.7837   -5.9059 C   0  0  0  0  0  0
    1.6894   -0.7701   -4.4924 C   0  0  0  0  0  0
    0.2526   -2.1250   -6.1546 C   0  0  0  0  0  0
   -0.8634   -2.5100   -5.0718 C   0  0  0  0  0  0
   -1.2668   -1.6200   -3.8174 C   0  0  0  0  0  0
   -1.6924   -2.4666   -2.4670 C   0  0  0  0  0  0
   -2.4201   -1.5221   -1.5117 C   0  0  0  0  0  0
   -2.5772   -3.7723   -2.7056 C   0  0  0  0  0  0
   -3.6334   -4.3618   -1.6306 C   0  0  0  0  0  0
   -3.1894   -4.9164   -0.2337 C   0  0  0  0  0  0
   -3.5684   -6.4220    0.1387 C   0  0  0  0  0  0
   -4.0204   -6.8950    1.5762 C   0  0  0  0  0  0
   -5.0902   -8.0106    1.7128 C   0  0  0  0  0  0
   -4.6077   -9.4879    1.4411 C   0  0  0  0  0  0
   -3.7791   -9.7090    0.1695 C   0  0  0  0  0  0
   -4.3028  -10.7256   -0.8843 C   0  0  0  0  0  0
   -4.7959  -12.1364   -0.4461 C   0  0  0  0  0  0
   -4.6586  -13.2514   -1.4734 C   0  0  0  0  0  0
   -4.1910  -12.5281    0.8412 N   0  0  0  0  0  0
   -5.4668  -10.0851   -1.4663 O   0  0  0  0  0  0
   -3.8341   -9.9141    2.5678 O   0  0  0  0  0  0
   -4.5127   -3.2634   -1.3359 O   0  0  0  0  0  0
   -2.1049   -2.6761   -5.8092 O   0  0  0  0  0  0
   -2.6998   -3.8958   -5.7488 C   0  0  0  0  0  0
   -2.3869   -4.8132   -5.0141 O   0  0  0  0  0  0
   -3.8843   -3.8940   -6.6753 C   0  0  0  0  0  0
   -3.8218   -5.0239   -7.7155 C   0  0  0  0  0  0
   -3.1836   -4.5739   -9.0359 C   0  0  0  0  0  0
   -2.5277   -5.7342   -9.7477 C   0  0  0  0  0  0
   -1.3130   -5.8814   -9.8284 O   0  0  0  0  0  0
   -3.4040   -6.5955  -10.2854 O   0  0  0  0  0  0
   -2.9800   -6.1380   -7.0781 C   0  0  0  0  0  0
   -1.7584   -6.1364   -7.0825 O   0  0  0  0  0  0
   -3.6967   -7.1431   -6.5566 O   0  0  0  0  0  0
   -0.2755   -2.1826   -7.5394 O   0  0  0  0  0  0
    0.3437   -3.0264   -8.4464 C   0  0  0  0  0  0
    0.1532   -4.2335   -8.5168 O   0  0  0  0  0  0
    1.3117   -2.2786   -9.3728 C   0  0  0  0  0  0
    0.8004   -0.9121   -9.9258 C   0  0  0  0  0  0
    1.7101   -0.1394  -10.8983 C   0  0  0  0  0  0
    1.5788    1.3505  -10.7660 C   0  0  0  0  0  0
    0.6722    2.0306  -11.2265 O   0  0  0  0  0  0
    2.5769    1.8921  -10.0513 O   0  0  0  0  0  0
   -0.5972   -0.9618  -10.5556 C   0  0  0  0  0  0
   -1.0145   -1.9292  -11.1611 O   0  0  0  0  0  0
   -1.3847    0.1047  -10.3032 O   0  0  0  0  0  0
   -4.4615  -13.4860    1.0597 H   0  0  0  0  0  0
   -4.6069  -11.9611    1.5835 H   0  0  0  0  0  0
   -5.4813  -10.3972   -2.3957 H   0  0  0  0  0  0
   -4.4409  -10.3049    3.2232 H   0  0  0  0  0  0
   -3.9775   -2.5398   -0.9692 H   0  0  0  0  0  0
   -3.0564   -7.4922  -10.4546 H   0  0  0  0  0  0
   -4.6609   -7.1165   -6.7766 H   0  0  0  0  0  0
    2.9507    1.1727   -9.5000 H   0  0  0  0  0  0
   -2.2463    0.1115  -10.7763 H   0  0  0  0  0  0
  1  2  1  0  0  0
  2  3  1  0  0  0
  3  4  1  0  0  0
  4  5  1  0  0  0
  5  6  1  0  0  0
  5  7  1  0  0  0
  7  8  1  0  0  0
  7 39  1  0  0  0
  8  9  1  0  0  0
  8 27  1  0  0  0
  9 10  1  0  0  0
 10 11  1  0  0  0
 10 12  1  0  0  0
 12 13  1  0  0  0
 13 14  1  0  0  0
 13 26  1  0  0  0
 14 15  1  0  0  0
 15 16  1  0  0  0
 16 17  1  0  0  0
 17 18  1  0  0  0
 18 19  1  0  0  0
 18 25  1  0  0  0
 19 20  1  0  0  0
 20 21  1  0  0  0
 20 24  1  0  0  0
 21 22  1  0  0  0
 21 23  1  0  0  0
 23 51  1  0  0  0
 23 52  1  0  0  0
 24 53  1  0  0  0
 25 54  1  0  0  0
 26 55  1  0  0  0
 27 28  1  0  0  0
 28 29  2  0  0  0
 28 30  1  0  0  0
 30 31  1  0  0  0
 31 32  1  0  0  0
 31 36  1  0  0  0
 32 33  1  0  0  0
 33 34  2  0  0  0
 33 35  1  0  0  0
 35 56  1  0  0  0
 36 37  2  0  0  0
 36 38  1  0  0  0
 38 57  1  0  0  0
 39 40  1  0  0  0
 40 41  2  0  0  0
 40 42  1  0  0  0
 42 43  1  0  0  0
 43 44  1  0  0  0
 43 48  1  0  0  0
 44 45  1  0  0  0
 45 46  2  0  0  0
 45 47  1  0  0  0
 47 58  1  0  0  0
 48 49  2  0  0  0
 48 50  1  0  0  0
 50 59  1  0  0  0
M  END
>  <AUTHOR>
    GENERATED BY OPEN BABEL 2.4.1

>  <CHROM.1>
-81.22920738,154.75157813,67.12331476,-68.76739169,3.22763569,105.37928707
-145.76994537,119.71033077,-163.99010754,-151.30902807,-64.44974985,-122.48169737
-59.99907074,-141.46031800,144.39887129,76.31080041,-47.67989586,-121.78953216
88.28243929,-47.25685653,-151.78197219,147.72784039,-174.76928663,9.47905965
124.06749695,-93.73699288,152.29078920,-82.29910028,-107.53122558,-158.40501568
9.57214012,80.18201379,-42.60667545,-177.98154317,-147.17777011,-33.86833975
-78.50862264,-21.84103712,174.41736715,-1.85138619,-4.07121340,-5.35899234
-0.44809442,1.18284724,1.27382832

>  <COMPND>
    UNNAMED

>  <MASTER>
        0    0    0    0    0    0    0    0  109    0  109    0

>  <Name>
FB1.pdb

>  <RI>
0

>  <Rbt.Current_Directory>
/cluster/tossine/FB1_39T3/p3/1_clust02

>  <Rbt.Executable>
rbdock/0.1.0

>  <Rbt.Library>
librxdock.so/0.1.0

>  <Rbt.Parameter_File>
/cluster/rxdock/data/scripts/dock.prm

>  <Rbt.Receptor>
rx_3.prm

>  <SCORE>
176.164

>  <SCORE.INTER>
118.277

>  <SCORE.INTER.CONST>
1

>  <SCORE.INTER.POLAR>
-0.286926

>  <SCORE.INTER.REPUL>
1.75371

>  <SCORE.INTER.ROT>
32

>  <SCORE.INTER.VDW>
73.0839

>  <SCORE.INTER.norm>
2.36554

>  <SCORE.INTRA>
52.2319

>  <SCORE.INTRA.DIHEDRAL>
67.0783

>  <SCORE.INTRA.DIHEDRAL.0>
47.3121

>  <SCORE.INTRA.POLAR>
1.47808

>  <SCORE.INTRA.POLAR.0>
-1.47808

>  <SCORE.INTRA.REPUL>
0.130963

>  <SCORE.INTRA.REPUL.0>
0

>  <SCORE.INTRA.VDW>
13.0125

>  <SCORE.INTRA.VDW.0>
-2.78316

>  <SCORE.INTRA.norm>
1.04464

>  <SCORE.RESTR>
5.65484

>  <SCORE.RESTR.CAVITY>
5.65484

>  <SCORE.RESTR.norm>
0.113097

>  <SCORE.SYSTEM>
0

>  <SCORE.SYSTEM.CONST>
0

>  <SCORE.SYSTEM.DIHEDRAL>
0

>  <SCORE.SYSTEM.norm>
0

>  <SCORE.heavy>
50

>  <SCORE.norm>
3.52327

$$$$
