FB1.pdb
  RxDock  10072009483D
librxdock.so/0.1.0
 59 58  0  0  0  0  0  0  0  0999 V2000
    2.8749   -1.4464   -6.8638 C   0  0  0  0  0  0
    2.7107   -0.1718   -6.0393 C   0  0  0  0  0  0
    1.8093    0.8526   -6.7481 C   0  0  0  0  0  0
    0.2980    0.6243   -6.4959 C   0  0  0  0  0  0
   -0.2313   -0.7982   -6.8920 C   0  0  0  0  0  0
   -1.2235   -1.2676   -5.8031 C   0  0  0  0  0  0
   -0.9016   -0.8467   -8.3295 C   0  0  0  0  0  0
   -0.0914   -0.1647   -9.5314 C   0  0  0  0  0  0
    1.4909   -0.1714   -9.6881 C   0  0  0  0  0  0
    2.1148    1.0961  -10.5399 C   0  0  0  0  0  0
    2.1081    0.7333  -12.0240 C   0  0  0  0  0  0
    1.3970    2.5052  -10.3305 C   0  0  0  0  0  0
    1.5332    3.4029   -8.9910 C   0  0  0  0  0  0
    1.5404    4.9697   -9.0268 C   0  0  0  0  0  0
    0.3447    5.7157   -9.7770 C   0  0  0  0  0  0
    0.2837    7.2750  -10.0205 C   0  0  0  0  0  0
    0.2518    8.2381   -8.8044 C   0  0  0  0  0  0
    1.4854    8.1763   -7.8228 C   0  0  0  0  0  0
    2.8508    8.5313   -8.4245 C   0  0  0  0  0  0
    3.9582    9.0685   -7.4741 C   0  0  0  0  0  0
    4.7643    8.0924   -6.5669 C   0  0  0  0  0  0
    6.2478    7.9487   -6.8767 C   0  0  0  0  0  0
    4.5512    8.4035   -5.1406 N   0  0  0  0  0  0
    4.9445    9.6616   -8.3569 O   0  0  0  0  0  0
    1.2252    9.0640   -6.7301 O   0  0  0  0  0  0
    0.3905    3.0512   -8.1927 O   0  0  0  0  0  0
   -0.5765   -0.7860  -10.7525 O   0  0  0  0  0  0
   -1.8881   -0.6062  -11.0571 C   0  0  0  0  0  0
   -2.6346    0.2182  -10.5646 O   0  0  0  0  0  0
   -2.2461   -1.5334  -12.1856 C   0  0  0  0  0  0
   -3.5500   -2.3045  -11.9251 C   0  0  0  0  0  0
   -4.5884   -1.4663  -11.1684 C   0  0  0  0  0  0
   -5.9032   -2.2018  -11.0528 C   0  0  0  0  0  0
   -5.9940   -3.4231  -10.9905 O   0  0  0  0  0  0
   -6.9695   -1.3888  -11.0226 O   0  0  0  0  0  0
   -4.0941   -2.6922  -13.3070 C   0  0  0  0  0  0
   -5.2351   -2.4464  -13.6675 O   0  0  0  0  0  0
   -3.2274   -3.3696  -14.0725 O   0  0  0  0  0  0
   -1.3429   -2.2216   -8.6683 O   0  0  0  0  0  0
   -2.6658   -2.5637   -8.4423 C   0  0  0  0  0  0
   -3.4672   -1.8752   -7.8242 O   0  0  0  0  0  0
   -3.0314   -3.9204   -9.0586 C   0  0  0  0  0  0
   -2.3695   -5.1670   -8.3934 C   0  0  0  0  0  0
   -0.8327   -5.2586   -8.3976 C   0  0  0  0  0  0
   -0.1798   -4.2029   -7.5528 C   0  0  0  0  0  0
   -0.4860   -3.9189   -6.4029 O   0  0  0  0  0  0
    0.8250   -3.5837   -8.1910 O   0  0  0  0  0  0
   -2.8360   -5.4478   -6.9596 C   0  0  0  0  0  0
   -2.8452   -6.5619   -6.4744 O   0  0  0  0  0  0
   -3.1390   -4.3571   -6.2248 O   0  0  0  0  0  0
    3.7404    7.8863   -4.8035 H   0  0  0  0  0  0
    4.2891    9.3882   -5.0567 H   0  0  0  0  0  0
    5.2081    8.9327   -8.9573 H   0  0  0  0  0  0
    0.3589    8.8310   -6.3485 H   0  0  0  0  0  0
   -0.4093    3.2716   -8.6989 H   0  0  0  0  0  0
   -6.7691   -0.4360  -11.0971 H   0  0  0  0  0  0
   -3.5530   -3.5651  -14.9860 H   0  0  0  0  0  0
    1.0481   -4.1377   -8.9686 H   0  0  0  0  0  0
   -3.3923   -4.5364   -5.2922 H   0  0  0  0  0  0
  1  2  1  0  0  0
  2  3  1  0  0  0
  3  4  1  0  0  0
  4  5  1  0  0  0
  5  6  1  0  0  0
  5  7  1  0  0  0
  7  8  1  0  0  0
  7 39  1  0  0  0
  8  9  1  0  0  0
  8 27  1  0  0  0
  9 10  1  0  0  0
 10 11  1  0  0  0
 10 12  1  0  0  0
 12 13  1  0  0  0
 13 14  1  0  0  0
 13 26  1  0  0  0
 14 15  1  0  0  0
 15 16  1  0  0  0
 16 17  1  0  0  0
 17 18  1  0  0  0
 18 19  1  0  0  0
 18 25  1  0  0  0
 19 20  1  0  0  0
 20 21  1  0  0  0
 20 24  1  0  0  0
 21 22  1  0  0  0
 21 23  1  0  0  0
 23 51  1  0  0  0
 23 52  1  0  0  0
 24 53  1  0  0  0
 25 54  1  0  0  0
 26 55  1  0  0  0
 27 28  1  0  0  0
 28 29  2  0  0  0
 28 30  1  0  0  0
 30 31  1  0  0  0
 31 32  1  0  0  0
 31 36  1  0  0  0
 32 33  1  0  0  0
 33 34  2  0  0  0
 33 35  1  0  0  0
 35 56  1  0  0  0
 36 37  2  0  0  0
 36 38  1  0  0  0
 38 57  1  0  0  0
 39 40  1  0  0  0
 40 41  2  0  0  0
 40 42  1  0  0  0
 42 43  1  0  0  0
 43 44  1  0  0  0
 43 48  1  0  0  0
 44 45  1  0  0  0
 45 46  2  0  0  0
 45 47  1  0  0  0
 47 58  1  0  0  0
 48 49  2  0  0  0
 48 50  1  0  0  0
 50 59  1  0  0  0
M  END
>  <AUTHOR>
    GENERATED BY OPEN BABEL 2.4.1

>  <CHROM.1>
84.75961817,-56.57285801,139.33971022,47.89917856,35.76124261,96.39816446
-153.31849113,62.82200142,-87.18079813,73.05626286,145.69970755,53.01724927
-60.38744758,-173.76846496,-61.78493672,60.34020865,61.69553701,154.68023472
53.44675648,78.30469218,113.76647278,-57.47497516,88.84379356,15.09068210
132.62587721,35.59543823,174.22925069,-127.58768798,30.63518776,1.22536937
-175.92386166,-9.86320133,68.63882645,-60.78399583,66.73401162,151.91313614
48.64175050,-15.16249141,-176.93008988,-0.46190794,0.64346379,-8.90502382
-0.80856580,0.78297315,2.72366200

>  <COMPND>
    UNNAMED

>  <MASTER>
        0    0    0    0    0    0    0    0  109    0  109    0

>  <Name>
FB1.pdb

>  <RI>
0

>  <Rbt.Current_Directory>
/cluster/tossine/FB1_39T3/p3/1_clust02

>  <Rbt.Executable>
rbdock/0.1.0

>  <Rbt.Library>
librxdock.so/0.1.0

>  <Rbt.Parameter_File>
/cluster/rxdock/data/scripts/dock.prm

>  <Rbt.Receptor>
rx_4.prm

>  <SCORE>
20.4718

>  <SCORE.INTER>
6.67337

>  <SCORE.INTER.CONST>
1

>  <SCORE.INTER.POLAR>
-2.42327

>  <SCORE.INTER.REPUL>
0.510244

>  <SCORE.INTER.ROT>
32

>  <SCORE.INTER.VDW>
-25.0387

>  <SCORE.INTER.norm>
0.133467

>  <SCORE.INTRA>
11.1876

>  <SCORE.INTRA.DIHEDRAL>
6.50123

>  <SCORE.INTRA.DIHEDRAL.0>
47.3121

>  <SCORE.INTRA.POLAR>
1.47808

>  <SCORE.INTRA.POLAR.0>
-1.47808

>  <SCORE.INTRA.REPUL>
0

>  <SCORE.INTRA.REPUL.0>
0

>  <SCORE.INTRA.VDW>
2.9115

>  <SCORE.INTRA.VDW.0>
-2.78316

>  <SCORE.INTRA.norm>
0.223751

>  <SCORE.RESTR>
2.61088

>  <SCORE.RESTR.CAVITY>
2.61088

>  <SCORE.RESTR.norm>
0.0522175

>  <SCORE.SYSTEM>
0

>  <SCORE.SYSTEM.CONST>
0

>  <SCORE.SYSTEM.DIHEDRAL>
0

>  <SCORE.SYSTEM.norm>
0

>  <SCORE.heavy>
50

>  <SCORE.norm>
0.409436

$$$$
