FB1.pdb
  RxDock  10072008443D
librxdock.so/0.1.0
 59 58  0  0  0  0  0  0  0  0999 V2000
    3.8436    0.2798  -10.4553 C   0  0  0  0  0  0
    3.5330    1.5373  -11.2636 C   0  0  0  0  0  0
    2.0497    1.6058  -11.6629 C   0  0  0  0  0  0
    1.1058    1.9315  -10.4785 C   0  0  0  0  0  0
    1.0967    0.8659   -9.3275 C   0  0  0  0  0  0
    0.2378    1.4146   -8.1647 C   0  0  0  0  0  0
    0.5803   -0.5614   -9.7900 C   0  0  0  0  0  0
    0.1382   -1.5819   -8.6369 C   0  0  0  0  0  0
    0.1412   -3.1666   -8.7670 C   0  0  0  0  0  0
   -1.3241   -3.8431   -9.1085 C   0  0  0  0  0  0
   -1.1659   -5.3626   -9.1203 C   0  0  0  0  0  0
   -2.5277   -3.4381   -8.1431 C   0  0  0  0  0  0
   -3.0845   -4.3730   -6.9454 C   0  0  0  0  0  0
   -3.2545   -5.9233   -7.0994 C   0  0  0  0  0  0
   -2.8174   -6.8579   -5.8810 C   0  0  0  0  0  0
   -3.7185   -8.0030   -5.2716 C   0  0  0  0  0  0
   -3.5011   -9.4705   -5.7262 C   0  0  0  0  0  0
   -4.7618  -10.4179   -5.6787 C   0  0  0  0  0  0
   -5.9110   -9.9743   -4.7649 C   0  0  0  0  0  0
   -6.3502  -10.9271   -3.6171 C   0  0  0  0  0  0
   -5.4130  -11.1850   -2.4003 C   0  0  0  0  0  0
   -4.7798   -9.9572   -1.7607 C   0  0  0  0  0  0
   -6.0853  -12.0200   -1.3869 N   0  0  0  0  0  0
   -7.5331  -10.3041   -3.0545 O   0  0  0  0  0  0
   -5.2660  -10.5494   -7.0122 O   0  0  0  0  0  0
   -2.1401   -4.2036   -5.8748 O   0  0  0  0  0  0
    1.0048   -1.3124   -7.5017 O   0  0  0  0  0  0
    0.4431   -1.3814   -6.2667 C   0  0  0  0  0  0
   -0.7187   -1.6419   -6.0184 O   0  0  0  0  0  0
    1.5238   -1.1809   -5.2404 C   0  0  0  0  0  0
    2.4274    0.0203   -5.5615 C   0  0  0  0  0  0
    1.7340    1.3641   -5.3029 C   0  0  0  0  0  0
    2.7403    2.4421   -4.9732 C   0  0  0  0  0  0
    3.4061    3.0300   -5.8187 O   0  0  0  0  0  0
    2.8369    2.6994   -3.6604 O   0  0  0  0  0  0
    3.6556   -0.1206   -4.6518 C   0  0  0  0  0  0
    3.5773   -0.2285   -3.4374 O   0  0  0  0  0  0
    4.8298   -0.0661   -5.2955 O   0  0  0  0  0  0
   -0.4516   -0.4404  -10.8485 O   0  0  0  0  0  0
   -1.7850   -0.4637  -10.4749 C   0  0  0  0  0  0
   -2.2122   -0.9805   -9.4507 O   0  0  0  0  0  0
   -2.6897    0.2388  -11.4957 C   0  0  0  0  0  0
   -4.2227    0.1426  -11.2214 C   0  0  0  0  0  0
   -5.1637    1.0332  -12.0531 C   0  0  0  0  0  0
   -4.5411    2.3437  -12.4399 C   0  0  0  0  0  0
   -3.8784    3.0632  -11.7053 O   0  0  0  0  0  0
   -4.7698    2.6615  -13.7233 O   0  0  0  0  0  0
   -4.7903   -1.2815  -11.2659 C   0  0  0  0  0  0
   -5.7737   -1.6203  -10.6375 O   0  0  0  0  0  0
   -4.1884   -2.1182  -12.1371 O   0  0  0  0  0  0
   -6.3156  -12.9236   -1.7980 H   0  0  0  0  0  0
   -6.9877  -11.5959   -1.1605 H   0  0  0  0  0  0
   -7.2458   -9.3966   -2.8195 H   0  0  0  0  0  0
   -4.5401  -10.8631   -7.5824 H   0  0  0  0  0  0
   -2.1887   -3.2807   -5.5742 H   0  0  0  0  0  0
    2.6506    1.9422   -3.0727 H   0  0  0  0  0  0
    4.7673   -0.1962   -6.2742 H   0  0  0  0  0  0
   -4.2941    3.5017  -13.8941 H   0  0  0  0  0  0
   -3.3218   -1.8103  -12.4841 H   0  0  0  0  0  0
  1  2  1  0  0  0
  2  3  1  0  0  0
  3  4  1  0  0  0
  4  5  1  0  0  0
  5  6  1  0  0  0
  5  7  1  0  0  0
  7  8  1  0  0  0
  7 39  1  0  0  0
  8  9  1  0  0  0
  8 27  1  0  0  0
  9 10  1  0  0  0
 10 11  1  0  0  0
 10 12  1  0  0  0
 12 13  1  0  0  0
 13 14  1  0  0  0
 13 26  1  0  0  0
 14 15  1  0  0  0
 15 16  1  0  0  0
 16 17  1  0  0  0
 17 18  1  0  0  0
 18 19  1  0  0  0
 18 25  1  0  0  0
 19 20  1  0  0  0
 20 21  1  0  0  0
 20 24  1  0  0  0
 21 22  1  0  0  0
 21 23  1  0  0  0
 23 51  1  0  0  0
 23 52  1  0  0  0
 24 53  1  0  0  0
 25 54  1  0  0  0
 26 55  1  0  0  0
 27 28  1  0  0  0
 28 29  2  0  0  0
 28 30  1  0  0  0
 30 31  1  0  0  0
 31 32  1  0  0  0
 31 36  1  0  0  0
 32 33  1  0  0  0
 33 34  2  0  0  0
 33 35  1  0  0  0
 35 56  1  0  0  0
 36 37  2  0  0  0
 36 38  1  0  0  0
 38 57  1  0  0  0
 39 40  1  0  0  0
 40 41  2  0  0  0
 40 42  1  0  0  0
 42 43  1  0  0  0
 43 44  1  0  0  0
 43 48  1  0  0  0
 44 45  1  0  0  0
 45 46  2  0  0  0
 45 47  1  0  0  0
 47 58  1  0  0  0
 48 49  2  0  0  0
 48 50  1  0  0  0
 50 59  1  0  0  0
M  END
>  <AUTHOR>
    GENERATED BY OPEN BABEL 2.4.1

>  <CHROM.1>
72.56376173,-62.55290127,173.65754944,-163.00436188,-154.67971248,-95.46366733
-98.79919314,141.97412872,-176.80139793,-101.02390913,-40.74522121,138.26373480
65.43344480,130.66783310,97.27616107,-151.27306474,-20.49121597,-120.93938130
55.20844651,68.79918626,46.82915984,-55.01914323,61.50508722,-0.33049391
47.27585711,73.62516261,152.65190057,-54.79793991,79.52913108,29.93070579
-16.24837711,-24.25842362,174.46506293,169.02947008,-31.88816493,152.50975582
-43.42035981,-177.34886524,14.64360143,-1.49410155,-2.57978938,-7.62839303
-0.99564570,0.63090427,2.36900289

>  <COMPND>
    UNNAMED

>  <MASTER>
        0    0    0    0    0    0    0    0  109    0  109    0

>  <Name>
FB1.pdb

>  <RI>
0

>  <Rbt.Current_Directory>
/cluster/tossine/FB1_39T3/p3/1_clust02

>  <Rbt.Executable>
rbdock/0.1.0

>  <Rbt.Library>
librxdock.so/0.1.0

>  <Rbt.Parameter_File>
/cluster/rxdock/data/scripts/dock.prm

>  <Rbt.Receptor>
rx_2.prm

>  <SCORE>
40.8484

>  <SCORE.INTER>
7.82772

>  <SCORE.INTER.CONST>
1

>  <SCORE.INTER.POLAR>
-1.3388

>  <SCORE.INTER.REPUL>
0.695274

>  <SCORE.INTER.ROT>
32

>  <SCORE.INTER.VDW>
-28.4967

>  <SCORE.INTER.norm>
0.156554

>  <SCORE.INTRA>
28.9648

>  <SCORE.INTRA.DIHEDRAL>
38.6134

>  <SCORE.INTRA.DIHEDRAL.0>
47.3121

>  <SCORE.INTRA.POLAR>
1.21963

>  <SCORE.INTRA.POLAR.0>
-1.47808

>  <SCORE.INTRA.REPUL>
0

>  <SCORE.INTRA.REPUL.0>
0

>  <SCORE.INTRA.VDW>
5.51135

>  <SCORE.INTRA.VDW.0>
-2.78316

>  <SCORE.INTRA.norm>
0.579296

>  <SCORE.RESTR>
4.05585

>  <SCORE.RESTR.CAVITY>
4.05585

>  <SCORE.RESTR.norm>
0.0811171

>  <SCORE.SYSTEM>
0

>  <SCORE.SYSTEM.CONST>
0

>  <SCORE.SYSTEM.DIHEDRAL>
0

>  <SCORE.SYSTEM.norm>
0

>  <SCORE.heavy>
50

>  <SCORE.norm>
0.816967

$$$$
