FB1.pdb
  RxDock  10072008423D
librxdock.so/0.1.0
 59 58  0  0  0  0  0  0  0  0999 V2000
   -5.3746  -11.5502   -7.5423 C   0  0  0  0  0  0
   -5.9933  -10.1545   -7.5690 C   0  0  0  0  0  0
   -5.1864   -9.1909   -8.4548 C   0  0  0  0  0  0
   -5.6102   -7.7089   -8.3006 C   0  0  0  0  0  0
   -4.5256   -6.6621   -8.7347 C   0  0  0  0  0  0
   -5.2218   -5.2960   -8.9341 C   0  0  0  0  0  0
   -3.3185   -6.5399   -7.7120 C   0  0  0  0  0  0
   -2.4375   -5.2040   -7.7856 C   0  0  0  0  0  0
   -1.6268   -4.7116   -9.0617 C   0  0  0  0  0  0
   -1.1433   -3.1351   -9.0178 C   0  0  0  0  0  0
    0.3757   -3.0978   -8.8580 C   0  0  0  0  0  0
   -1.5726   -2.2331  -10.2616 C   0  0  0  0  0  0
   -3.1014   -1.8287  -10.6048 C   0  0  0  0  0  0
   -3.5657   -1.4513  -12.0532 C   0  0  0  0  0  0
   -5.1023   -1.0848  -12.2846 C   0  0  0  0  0  0
   -5.7758    0.2627  -11.8101 C   0  0  0  0  0  0
   -5.5231    1.5673  -12.6111 C   0  0  0  0  0  0
   -4.0371    1.8395  -13.0657 C   0  0  0  0  0  0
   -3.7897    3.1437  -13.8340 C   0  0  0  0  0  0
   -3.2704    4.3780  -13.0434 C   0  0  0  0  0  0
   -4.0651    4.9268  -11.8216 C   0  0  0  0  0  0
   -5.5533    4.6087  -11.7831 C   0  0  0  0  0  0
   -3.4114    4.5453  -10.5553 N   0  0  0  0  0  0
   -1.9927    3.9566  -12.5016 O   0  0  0  0  0  0
   -3.2100    1.8362  -11.8971 O   0  0  0  0  0  0
   -3.8779   -2.9858  -10.2515 O   0  0  0  0  0  0
   -3.3403   -4.1049   -7.4867 O   0  0  0  0  0  0
   -3.4350   -3.7202   -6.1874 C   0  0  0  0  0  0
   -4.4623   -3.5819   -5.5511 O   0  0  0  0  0  0
   -2.0455   -3.5891   -5.6274 C   0  0  0  0  0  0
   -1.9203   -2.4318   -4.6237 C   0  0  0  0  0  0
   -2.5111   -2.7769   -3.2506 C   0  0  0  0  0  0
   -3.9335   -2.2817   -3.1291 C   0  0  0  0  0  0
   -4.7866   -2.8314   -2.4409 O   0  0  0  0  0  0
   -4.1775   -1.1758   -3.8477 O   0  0  0  0  0  0
   -0.4176   -2.1478   -4.4926 C   0  0  0  0  0  0
    0.4416   -2.9883   -4.7112 O   0  0  0  0  0  0
   -0.1234   -0.9108   -4.0691 O   0  0  0  0  0  0
   -3.7576   -6.8388   -6.3272 O   0  0  0  0  0  0
   -3.0304   -7.7577   -5.5891 C   0  0  0  0  0  0
   -2.1728   -8.4993   -6.0506 O   0  0  0  0  0  0
   -3.4167   -7.7507   -4.1042 C   0  0  0  0  0  0
   -4.6348   -8.6456   -3.7169 C   0  0  0  0  0  0
   -4.9733   -9.8400   -4.6276 C   0  0  0  0  0  0
   -6.3388  -10.4075   -4.3672 C   0  0  0  0  0  0
   -7.3324   -9.7636   -4.0593 O   0  0  0  0  0  0
   -6.3801  -11.7391   -4.5269 O   0  0  0  0  0  0
   -4.6092   -9.1682   -2.2752 C   0  0  0  0  0  0
   -5.3391  -10.0567   -1.8819 O   0  0  0  0  0  0
   -3.6433   -8.6500   -1.4881 O   0  0  0  0  0  0
   -4.0383    3.9425  -10.0241 H   0  0  0  0  0  0
   -3.3009    5.3830   -9.9795 H   0  0  0  0  0  0
   -1.8272    4.5696  -11.7545 H   0  0  0  0  0  0
   -2.2799    1.8984  -12.1825 H   0  0  0  0  0  0
   -3.8880   -3.0567   -9.2823 H   0  0  0  0  0  0
   -4.1602   -1.2963   -4.8166 H   0  0  0  0  0  0
    0.7778   -0.8168   -3.6721 H   0  0  0  0  0  0
   -7.2349  -12.0409   -4.1534 H   0  0  0  0  0  0
   -3.6607   -8.9473   -0.5514 H   0  0  0  0  0  0
  1  2  1  0  0  0
  2  3  1  0  0  0
  3  4  1  0  0  0
  4  5  1  0  0  0
  5  6  1  0  0  0
  5  7  1  0  0  0
  7  8  1  0  0  0
  7 39  1  0  0  0
  8  9  1  0  0  0
  8 27  1  0  0  0
  9 10  1  0  0  0
 10 11  1  0  0  0
 10 12  1  0  0  0
 12 13  1  0  0  0
 13 14  1  0  0  0
 13 26  1  0  0  0
 14 15  1  0  0  0
 15 16  1  0  0  0
 16 17  1  0  0  0
 17 18  1  0  0  0
 18 19  1  0  0  0
 18 25  1  0  0  0
 19 20  1  0  0  0
 20 21  1  0  0  0
 20 24  1  0  0  0
 21 22  1  0  0  0
 21 23  1  0  0  0
 23 51  1  0  0  0
 23 52  1  0  0  0
 24 53  1  0  0  0
 25 54  1  0  0  0
 26 55  1  0  0  0
 27 28  1  0  0  0
 28 29  2  0  0  0
 28 30  1  0  0  0
 30 31  1  0  0  0
 31 32  1  0  0  0
 31 36  1  0  0  0
 32 33  1  0  0  0
 33 34  2  0  0  0
 33 35  1  0  0  0
 35 56  1  0  0  0
 36 37  2  0  0  0
 36 38  1  0  0  0
 38 57  1  0  0  0
 39 40  1  0  0  0
 40 41  2  0  0  0
 40 42  1  0  0  0
 42 43  1  0  0  0
 43 44  1  0  0  0
 43 48  1  0  0  0
 44 45  1  0  0  0
 45 46  2  0  0  0
 45 47  1  0  0  0
 47 58  1  0  0  0
 48 49  2  0  0  0
 48 50  1  0  0  0
 50 59  1  0  0  0
M  END
>  <AUTHOR>
    GENERATED BY OPEN BABEL 2.4.1

>  <CHROM.1>
-168.89588324,158.24679289,162.98629234,-160.11563301,-59.84781915,129.34855034
164.27888018,91.80641380,110.15338607,66.95068027,-155.47637502,179.27802134
70.98151893,72.99815442,76.64421910,-43.83870162,-178.87727288,96.90858187
173.40029204,-56.67881207,-23.81835661,-159.37950622,-116.76724910,-128.74347486
144.22727348,77.16166762,-95.61062805,-25.40979196,149.79885415,68.28846992
158.76642494,-11.78518800,85.71731614,24.33638443,-165.36388982,-166.57519988
35.79896712,167.92362034,176.64173957,-3.68554135,-3.84982050,-7.46646600
1.77820228,1.12245844,2.38454069

>  <COMPND>
    UNNAMED

>  <MASTER>
        0    0    0    0    0    0    0    0  109    0  109    0

>  <Name>
FB1.pdb

>  <RI>
0

>  <Rbt.Current_Directory>
/cluster/tossine/FB1_39T3/p3/1_clust02

>  <Rbt.Executable>
rbdock/0.1.0

>  <Rbt.Library>
librxdock.so/0.1.0

>  <Rbt.Parameter_File>
/cluster/rxdock/data/scripts/dock.prm

>  <Rbt.Receptor>
rx_2.prm

>  <SCORE>
48.6422

>  <SCORE.INTER>
16.3348

>  <SCORE.INTER.CONST>
1

>  <SCORE.INTER.POLAR>
-2.99985

>  <SCORE.INTER.REPUL>
0.396563

>  <SCORE.INTER.ROT>
32

>  <SCORE.INTER.VDW>
-12.8485

>  <SCORE.INTER.norm>
0.326696

>  <SCORE.INTRA>
31.0191

>  <SCORE.INTRA.DIHEDRAL>
52.373

>  <SCORE.INTRA.DIHEDRAL.0>
47.3121

>  <SCORE.INTRA.POLAR>
0.233113

>  <SCORE.INTRA.POLAR.0>
-1.47808

>  <SCORE.INTRA.REPUL>
0

>  <SCORE.INTRA.REPUL.0>
0

>  <SCORE.INTRA.VDW>
4.04

>  <SCORE.INTRA.VDW.0>
-2.78316

>  <SCORE.INTRA.norm>
0.620382

>  <SCORE.RESTR>
1.28827

>  <SCORE.RESTR.CAVITY>
1.28827

>  <SCORE.RESTR.norm>
0.0257653

>  <SCORE.SYSTEM>
0

>  <SCORE.SYSTEM.CONST>
0

>  <SCORE.SYSTEM.DIHEDRAL>
0

>  <SCORE.SYSTEM.norm>
0

>  <SCORE.heavy>
50

>  <SCORE.norm>
0.972844

$$$$
