FB1.pdb
  RxDock  10072009163D
librxdock.so/0.1.0
 59 58  0  0  0  0  0  0  0  0999 V2000
    0.4865    5.4629   -8.6304 C   0  0  0  0  0  0
    1.7394    4.8104   -9.2099 C   0  0  0  0  0  0
    1.4611    3.3804   -9.7017 C   0  0  0  0  0  0
    1.3173    2.3497   -8.5542 C   0  0  0  0  0  0
    1.1117    0.8659   -9.0196 C   0  0  0  0  0  0
    2.3091    0.4669   -9.9127 C   0  0  0  0  0  0
    0.9344   -0.1557   -7.8184 C   0  0  0  0  0  0
    0.3628   -1.6080   -8.1794 C   0  0  0  0  0  0
    0.0490   -2.7558   -7.1248 C   0  0  0  0  0  0
   -1.2117   -2.4452   -6.1072 C   0  0  0  0  0  0
   -2.5140   -2.7824   -6.8314 C   0  0  0  0  0  0
   -1.1762   -3.1889   -4.6963 C   0  0  0  0  0  0
   -2.2816   -2.9813   -3.5329 C   0  0  0  0  0  0
   -2.3704   -3.9203   -2.2812 C   0  0  0  0  0  0
   -3.8019   -4.1646   -1.6178 C   0  0  0  0  0  0
   -4.1837   -5.4440   -0.7741 C   0  0  0  0  0  0
   -3.7746   -6.8494   -1.2888 C   0  0  0  0  0  0
   -3.4969   -7.9491   -0.1921 C   0  0  0  0  0  0
   -4.6106   -8.1786    0.8372 C   0  0  0  0  0  0
   -4.3331   -7.8017    2.3202 C   0  0  0  0  0  0
   -3.5033   -8.7496    3.2357 C   0  0  0  0  0  0
   -3.5648   -8.4721    4.7312 C   0  0  0  0  0  0
   -3.8145  -10.1628    2.9484 N   0  0  0  0  0  0
   -3.5601   -6.5764    2.2496 O   0  0  0  0  0  0
   -3.2362   -9.1865   -0.8635 O   0  0  0  0  0  0
   -2.0175   -1.6719   -3.0016 O   0  0  0  0  0  0
   -0.9026   -1.3890   -8.8600 O   0  0  0  0  0  0
   -0.8444   -1.0045  -10.1616 C   0  0  0  0  0  0
   -0.1268   -1.4801  -11.0208 O   0  0  0  0  0  0
   -1.8939    0.0470  -10.3946 C   0  0  0  0  0  0
   -2.6604   -0.1652  -11.7098 C   0  0  0  0  0  0
   -3.5828   -1.3901  -11.6625 C   0  0  0  0  0  0
   -3.8928   -1.8930  -13.0533 C   0  0  0  0  0  0
   -4.8222   -1.4740  -13.7347 O   0  0  0  0  0  0
   -3.0497   -2.8462  -13.4771 O   0  0  0  0  0  0
   -3.4894    1.1086  -11.9252 C   0  0  0  0  0  0
   -3.1909    1.9688  -12.7397 O   0  0  0  0  0  0
   -4.5458    1.2255  -11.1089 O   0  0  0  0  0  0
    2.1659   -0.2335   -6.9955 O   0  0  0  0  0  0
    2.2410    0.5370   -5.8471 C   0  0  0  0  0  0
    1.2973    1.1348   -5.3468 O   0  0  0  0  0  0
    3.6558    0.5645   -5.2540 C   0  0  0  0  0  0
    4.3458    1.9633   -5.2126 C   0  0  0  0  0  0
    3.7673    3.0817   -6.0985 C   0  0  0  0  0  0
    4.5819    4.3424   -6.0584 C   0  0  0  0  0  0
    4.2826    5.4026   -6.5904 O   0  0  0  0  0  0
    5.7073    4.2036   -5.3411 O   0  0  0  0  0  0
    4.5220    2.5461   -3.8049 C   0  0  0  0  0  0
    3.7985    3.4117   -3.3533 O   0  0  0  0  0  0
    5.4735    1.9585   -3.0495 O   0  0  0  0  0  0
   -3.3583  -10.7531    3.6426 H   0  0  0  0  0  0
   -3.3801  -10.4186    2.0588 H   0  0  0  0  0  0
   -3.5016   -6.2678    3.1784 H   0  0  0  0  0  0
   -3.8806   -9.8460   -0.5469 H   0  0  0  0  0  0
   -1.1008   -1.6575   -2.6790 H   0  0  0  0  0  0
   -2.3861   -3.1366  -12.8223 H   0  0  0  0  0  0
   -4.5813    2.0753  -10.6035 H   0  0  0  0  0  0
    6.1791    5.0617   -5.3890 H   0  0  0  0  0  0
    5.9848    1.2478   -3.4965 H   0  0  0  0  0  0
  1  2  1  0  0  0
  2  3  1  0  0  0
  3  4  1  0  0  0
  4  5  1  0  0  0
  5  6  1  0  0  0
  5  7  1  0  0  0
  7  8  1  0  0  0
  7 39  1  0  0  0
  8  9  1  0  0  0
  8 27  1  0  0  0
  9 10  1  0  0  0
 10 11  1  0  0  0
 10 12  1  0  0  0
 12 13  1  0  0  0
 13 14  1  0  0  0
 13 26  1  0  0  0
 14 15  1  0  0  0
 15 16  1  0  0  0
 16 17  1  0  0  0
 17 18  1  0  0  0
 18 19  1  0  0  0
 18 25  1  0  0  0
 19 20  1  0  0  0
 20 21  1  0  0  0
 20 24  1  0  0  0
 21 22  1  0  0  0
 21 23  1  0  0  0
 23 51  1  0  0  0
 23 52  1  0  0  0
 24 53  1  0  0  0
 25 54  1  0  0  0
 26 55  1  0  0  0
 27 28  1  0  0  0
 28 29  2  0  0  0
 28 30  1  0  0  0
 30 31  1  0  0  0
 31 32  1  0  0  0
 31 36  1  0  0  0
 32 33  1  0  0  0
 33 34  2  0  0  0
 33 35  1  0  0  0
 35 56  1  0  0  0
 36 37  2  0  0  0
 36 38  1  0  0  0
 38 57  1  0  0  0
 39 40  1  0  0  0
 40 41  2  0  0  0
 40 42  1  0  0  0
 42 43  1  0  0  0
 43 44  1  0  0  0
 43 48  1  0  0  0
 44 45  1  0  0  0
 45 46  2  0  0  0
 45 47  1  0  0  0
 47 58  1  0  0  0
 48 49  2  0  0  0
 48 50  1  0  0  0
 50 59  1  0  0  0
M  END
>  <AUTHOR>
    GENERATED BY OPEN BABEL 2.4.1

>  <CHROM.1>
-74.99034310,-176.77118246,57.66023112,165.22602263,-177.16281008,96.41897964
67.70460722,77.64953276,81.87014181,177.57781054,168.03062387,-149.04459379
-58.27118485,154.85223128,-44.51889122,149.86031458,53.52836494,-113.54143083
-122.43565209,-79.18785010,-165.79563654,171.74677074,-172.29577863,44.73792841
-136.74730029,70.05187334,-157.80028919,104.47972591,-87.50446341,3.89526392
126.18758119,11.15034626,117.09756930,-17.15863019,-175.23811696,-102.03779596
-174.14948406,178.69303792,2.92511529,-0.61897403,-1.32880197,-5.89002616
-1.15681826,0.73682746,2.02642947

>  <COMPND>
    UNNAMED

>  <MASTER>
        0    0    0    0    0    0    0    0  109    0  109    0

>  <Name>
FB1.pdb

>  <RI>
0

>  <Rbt.Current_Directory>
/cluster/tossine/FB1_39T3/p3/1_clust02

>  <Rbt.Executable>
rbdock/0.1.0

>  <Rbt.Library>
librxdock.so/0.1.0

>  <Rbt.Parameter_File>
/cluster/rxdock/data/scripts/dock.prm

>  <Rbt.Receptor>
rx_3.prm

>  <SCORE>
76.283

>  <SCORE.INTER>
41.7006

>  <SCORE.INTER.CONST>
1

>  <SCORE.INTER.POLAR>
-1.85912

>  <SCORE.INTER.REPUL>
0.41362

>  <SCORE.INTER.ROT>
32

>  <SCORE.INTER.VDW>
8.55354

>  <SCORE.INTER.norm>
0.834013

>  <SCORE.INTRA>
23.7253

>  <SCORE.INTRA.DIHEDRAL>
34.6427

>  <SCORE.INTRA.DIHEDRAL.0>
47.3121

>  <SCORE.INTRA.POLAR>
1.47808

>  <SCORE.INTRA.POLAR.0>
-1.47808

>  <SCORE.INTRA.REPUL>
0

>  <SCORE.INTRA.REPUL.0>
0

>  <SCORE.INTRA.VDW>
1.3785

>  <SCORE.INTRA.VDW.0>
-2.78316

>  <SCORE.INTRA.norm>
0.474506

>  <SCORE.RESTR>
10.8571

>  <SCORE.RESTR.CAVITY>
10.8571

>  <SCORE.RESTR.norm>
0.217142

>  <SCORE.SYSTEM>
0

>  <SCORE.SYSTEM.CONST>
0

>  <SCORE.SYSTEM.DIHEDRAL>
0

>  <SCORE.SYSTEM.norm>
0

>  <SCORE.heavy>
50

>  <SCORE.norm>
1.52566

$$$$
