FB1.pdb
  RxDock  10072008423D
librxdock.so/0.1.0
 59 58  0  0  0  0  0  0  0  0999 V2000
    0.2901    0.4966   -9.5436 C   0  0  0  0  0  0
   -0.1448   -0.8819   -9.0516 C   0  0  0  0  0  0
    0.9737   -1.9241   -9.2159 C   0  0  0  0  0  0
    0.5743   -3.3402   -8.7314 C   0  0  0  0  0  0
   -0.6456   -3.9773   -9.4840 C   0  0  0  0  0  0
   -0.5858   -5.5107   -9.2949 C   0  0  0  0  0  0
   -2.0486   -3.4022   -9.0164 C   0  0  0  0  0  0
   -3.3128   -3.7296   -9.9443 C   0  0  0  0  0  0
   -4.3986   -4.8528   -9.6484 C   0  0  0  0  0  0
   -5.7148   -4.8325  -10.6426 C   0  0  0  0  0  0
   -5.2286   -4.8224  -12.0910 C   0  0  0  0  0  0
   -6.7673   -6.0141  -10.4400 C   0  0  0  0  0  0
   -7.3468   -6.4766   -9.0016 C   0  0  0  0  0  0
   -6.8290   -7.7560   -8.2593 C   0  0  0  0  0  0
   -7.4968   -8.1430   -6.8616 C   0  0  0  0  0  0
   -9.0467   -8.0690   -6.5665 C   0  0  0  0  0  0
   -9.5690   -8.3812   -5.1392 C   0  0  0  0  0  0
   -8.8785   -7.6073   -3.9503 C   0  0  0  0  0  0
   -9.7644   -7.2945   -2.7379 C   0  0  0  0  0  0
  -10.9328   -6.2845   -2.9193 C   0  0  0  0  0  0
  -11.6249   -5.6440   -1.6799 C   0  0  0  0  0  0
  -10.7057   -5.0395   -0.6277 C   0  0  0  0  0  0
  -12.6578   -4.6765   -2.0963 N   0  0  0  0  0  0
  -10.3470   -5.1702   -3.6398 O   0  0  0  0  0  0
   -7.7601   -8.3840   -3.5081 O   0  0  0  0  0  0
   -7.0520   -5.3836   -8.1156 O   0  0  0  0  0  0
   -4.0821   -2.4996  -10.0316 O   0  0  0  0  0  0
   -3.4816   -1.4374  -10.6285 C   0  0  0  0  0  0
   -2.3061   -1.3507  -10.9287 O   0  0  0  0  0  0
   -4.5356   -0.4152  -10.9534 C   0  0  0  0  0  0
   -4.1734    0.4369  -12.1802 C   0  0  0  0  0  0
   -4.6180   -0.2099  -13.4983 C   0  0  0  0  0  0
   -4.3015   -1.6874  -13.5144 C   0  0  0  0  0  0
   -5.1385   -2.5581  -13.7268 O   0  0  0  0  0  0
   -3.0104   -1.9600  -13.2747 O   0  0  0  0  0  0
   -4.8895    1.7807  -11.9868 C   0  0  0  0  0  0
   -4.9946    2.6142  -12.8738 O   0  0  0  0  0  0
   -5.3500    1.9883  -10.7455 O   0  0  0  0  0  0
   -2.3097   -3.7204   -7.5915 O   0  0  0  0  0  0
   -2.6737   -2.6890   -6.7419 C   0  0  0  0  0  0
   -2.7518   -1.5120   -7.0690 O   0  0  0  0  0  0
   -2.9759   -3.1823   -5.3207 C   0  0  0  0  0  0
   -2.8006   -2.1263   -4.1855 C   0  0  0  0  0  0
   -4.0392   -1.3243   -3.7462 C   0  0  0  0  0  0
   -5.0144   -2.1412   -2.9486 C   0  0  0  0  0  0
   -6.2303   -2.1319   -3.0825 O   0  0  0  0  0  0
   -4.4076   -2.9307   -2.0492 O   0  0  0  0  0  0
   -2.1337   -2.6629   -2.9129 C   0  0  0  0  0  0
   -1.8299   -3.8307   -2.7688 O   0  0  0  0  0  0
   -1.8039   -1.7308   -1.9945 O   0  0  0  0  0  0
  -13.0602   -4.9782   -2.9826 H   0  0  0  0  0  0
  -12.2046   -3.7836   -2.3032 H   0  0  0  0  0  0
  -10.6488   -4.3750   -3.1520 H   0  0  0  0  0  0
   -8.0590   -9.3035   -3.3824 H   0  0  0  0  0  0
   -7.3595   -5.6261   -7.2262 H   0  0  0  0  0  0
   -2.8096   -2.8978  -13.0914 H   0  0  0  0  0  0
   -5.6546    2.9132  -10.5705 H   0  0  0  0  0  0
   -5.1134   -3.3008   -1.4782 H   0  0  0  0  0  0
   -1.1453   -2.0174   -1.3234 H   0  0  0  0  0  0
  1  2  1  0  0  0
  2  3  1  0  0  0
  3  4  1  0  0  0
  4  5  1  0  0  0
  5  6  1  0  0  0
  5  7  1  0  0  0
  7  8  1  0  0  0
  7 39  1  0  0  0
  8  9  1  0  0  0
  8 27  1  0  0  0
  9 10  1  0  0  0
 10 11  1  0  0  0
 10 12  1  0  0  0
 12 13  1  0  0  0
 13 14  1  0  0  0
 13 26  1  0  0  0
 14 15  1  0  0  0
 15 16  1  0  0  0
 16 17  1  0  0  0
 17 18  1  0  0  0
 18 19  1  0  0  0
 18 25  1  0  0  0
 19 20  1  0  0  0
 20 21  1  0  0  0
 20 24  1  0  0  0
 21 22  1  0  0  0
 21 23  1  0  0  0
 23 51  1  0  0  0
 23 52  1  0  0  0
 24 53  1  0  0  0
 25 54  1  0  0  0
 26 55  1  0  0  0
 27 28  1  0  0  0
 28 29  2  0  0  0
 28 30  1  0  0  0
 30 31  1  0  0  0
 31 32  1  0  0  0
 31 36  1  0  0  0
 32 33  1  0  0  0
 33 34  2  0  0  0
 33 35  1  0  0  0
 35 56  1  0  0  0
 36 37  2  0  0  0
 36 38  1  0  0  0
 38 57  1  0  0  0
 39 40  1  0  0  0
 40 41  2  0  0  0
 40 42  1  0  0  0
 42 43  1  0  0  0
 43 44  1  0  0  0
 43 48  1  0  0  0
 44 45  1  0  0  0
 45 46  2  0  0  0
 45 47  1  0  0  0
 47 58  1  0  0  0
 48 49  2  0  0  0
 48 50  1  0  0  0
 50 59  1  0  0  0
M  END
>  <AUTHOR>
    GENERATED BY OPEN BABEL 2.4.1

>  <CHROM.1>
-179.87470287,60.67142557,158.77707778,166.20102319,101.22135240,128.56393171
171.33319163,63.54218778,51.63353207,47.64514852,-102.07450364,-178.41425701
-178.34765509,42.00829629,-175.96227146,51.35226569,148.32768116,-67.01854009
-48.74872179,-163.93626913,49.33621204,-132.80771364,31.18724566,-11.07314739
-151.11775902,86.96043718,-43.70095949,-167.82319250,125.07210918,167.59794392
168.84795844,-2.76416272,155.09523601,93.69602630,72.95341158,-3.75240710
-136.73286428,170.35017590,-161.95367030,-4.95828611,-3.43671865,-7.49908618
-0.85935606,0.54848330,1.69751002

>  <COMPND>
    UNNAMED

>  <MASTER>
        0    0    0    0    0    0    0    0  109    0  109    0

>  <Name>
FB1.pdb

>  <RI>
0

>  <Rbt.Current_Directory>
/cluster/tossine/FB1_39T3/p3/1_clust02

>  <Rbt.Executable>
rbdock/0.1.0

>  <Rbt.Library>
librxdock.so/0.1.0

>  <Rbt.Parameter_File>
/cluster/rxdock/data/scripts/dock.prm

>  <Rbt.Receptor>
rx_2.prm

>  <SCORE>
22.9122

>  <SCORE.INTER>
6.11183

>  <SCORE.INTER.CONST>
1

>  <SCORE.INTER.POLAR>
-1.72542

>  <SCORE.INTER.REPUL>
1.15312

>  <SCORE.INTER.ROT>
32

>  <SCORE.INTER.VDW>
-31.1873

>  <SCORE.INTER.norm>
0.122237

>  <SCORE.INTRA>
15.7419

>  <SCORE.INTRA.DIHEDRAL>
9.7466

>  <SCORE.INTRA.DIHEDRAL.0>
47.3121

>  <SCORE.INTRA.POLAR>
1.47808

>  <SCORE.INTRA.POLAR.0>
-1.47808

>  <SCORE.INTRA.REPUL>
0

>  <SCORE.INTRA.REPUL.0>
0

>  <SCORE.INTRA.VDW>
5.84317

>  <SCORE.INTRA.VDW.0>
-2.78316

>  <SCORE.INTRA.norm>
0.314839

>  <SCORE.RESTR>
1.0584

>  <SCORE.RESTR.CAVITY>
1.0584

>  <SCORE.RESTR.norm>
0.0211681

>  <SCORE.SYSTEM>
0

>  <SCORE.SYSTEM.CONST>
0

>  <SCORE.SYSTEM.DIHEDRAL>
0

>  <SCORE.SYSTEM.norm>
0

>  <SCORE.heavy>
50

>  <SCORE.norm>
0.458243

$$$$
