FB1.pdb
  RxDock  10072009563D
librxdock.so/0.1.0
 59 58  0  0  0  0  0  0  0  0999 V2000
   -4.1283   -2.5792   -2.1502 C   0  0  0  0  0  0
   -4.1909   -1.9435   -3.5371 C   0  0  0  0  0  0
   -2.7875   -1.7112   -4.1209 C   0  0  0  0  0  0
   -2.7441   -1.7740   -5.6681 C   0  0  0  0  0  0
   -1.3055   -1.8670   -6.2863 C   0  0  0  0  0  0
   -0.4740   -2.8539   -5.4347 C   0  0  0  0  0  0
   -1.2995   -2.2920   -7.8151 C   0  0  0  0  0  0
   -2.5245   -3.1905   -8.3233 C   0  0  0  0  0  0
   -3.4488   -4.0886   -7.3920 C   0  0  0  0  0  0
   -3.3187   -5.7148   -7.6370 C   0  0  0  0  0  0
   -2.8878   -6.3699   -6.3258 C   0  0  0  0  0  0
   -4.6197   -6.4474   -8.1987 C   0  0  0  0  0  0
   -4.9275   -8.0244   -8.0066 C   0  0  0  0  0  0
   -5.6892   -8.5856   -6.7572 C   0  0  0  0  0  0
   -4.8449   -9.3390   -5.6308 C   0  0  0  0  0  0
   -4.8959   -8.9807   -4.0934 C   0  0  0  0  0  0
   -5.8109   -9.8018   -3.1469 C   0  0  0  0  0  0
   -5.0907  -10.6368   -2.0184 C   0  0  0  0  0  0
   -4.3595   -9.8299   -0.9382 C   0  0  0  0  0  0
   -3.8430  -10.5822    0.3210 C   0  0  0  0  0  0
   -4.8301  -11.0125    1.4461 C   0  0  0  0  0  0
   -4.2441  -11.1539    2.8440 C   0  0  0  0  0  0
   -6.0226  -10.1440    1.4596 N   0  0  0  0  0  0
   -3.2939  -11.8229   -0.1915 O   0  0  0  0  0  0
   -6.0740  -11.4608   -1.3830 O   0  0  0  0  0  0
   -5.7431   -8.3819   -9.1351 O   0  0  0  0  0  0
   -3.4499   -2.2820   -8.9798 O   0  0  0  0  0  0
   -3.1197   -1.8612  -10.2284 C   0  0  0  0  0  0
   -2.0933   -2.1208  -10.8272 O   0  0  0  0  0  0
   -4.2840   -1.0976  -10.7967 C   0  0  0  0  0  0
   -3.9784   -0.4973  -12.1783 C   0  0  0  0  0  0
   -4.8164   -1.1333  -13.2949 C   0  0  0  0  0  0
   -4.4450   -2.5841  -13.4961 C   0  0  0  0  0  0
   -5.2614   -3.4991  -13.4993 O   0  0  0  0  0  0
   -3.1301   -2.7794  -13.6739 O   0  0  0  0  0  0
   -4.2996    0.9996  -12.0682 C   0  0  0  0  0  0
   -4.3971    1.5840  -10.9998 O   0  0  0  0  0  0
   -4.5142    1.6070  -13.2433 O   0  0  0  0  0  0
   -1.0683   -1.1210   -8.6955 O   0  0  0  0  0  0
   -0.0738   -0.2218   -8.3486 C   0  0  0  0  0  0
    0.6639   -0.3393   -7.3788 O   0  0  0  0  0  0
    0.0111    0.9598   -9.3238 C   0  0  0  0  0  0
    1.2242    1.9199   -9.1207 C   0  0  0  0  0  0
    2.6400    1.3173   -9.1719 C   0  0  0  0  0  0
    2.8191    0.3346  -10.2930 C   0  0  0  0  0  0
    3.1965    0.6045  -11.4250 O   0  0  0  0  0  0
    2.5342   -0.9233   -9.9232 O   0  0  0  0  0  0
    1.2227    3.1514  -10.0349 C   0  0  0  0  0  0
    1.4320    4.2768   -9.6270 O   0  0  0  0  0  0
    1.0786    2.8950  -11.3520 O   0  0  0  0  0  0
   -5.7666   -9.2198    1.1148 H   0  0  0  0  0  0
   -6.3063   -9.9937    2.4304 H   0  0  0  0  0  0
   -3.0241  -12.3222    0.6081 H   0  0  0  0  0  0
   -6.7304  -10.8785   -0.9581 H   0  0  0  0  0  0
   -5.8516   -9.3477   -9.1337 H   0  0  0  0  0  0
   -2.8781   -3.6754  -13.9692 H   0  0  0  0  0  0
   -4.8347    2.5402  -13.1700 H   0  0  0  0  0  0
    2.6945   -1.4901  -10.7070 H   0  0  0  0  0  0
    0.8052    1.9772  -11.5735 H   0  0  0  0  0  0
  1  2  1  0  0  0
  2  3  1  0  0  0
  3  4  1  0  0  0
  4  5  1  0  0  0
  5  6  1  0  0  0
  5  7  1  0  0  0
  7  8  1  0  0  0
  7 39  1  0  0  0
  8  9  1  0  0  0
  8 27  1  0  0  0
  9 10  1  0  0  0
 10 11  1  0  0  0
 10 12  1  0  0  0
 12 13  1  0  0  0
 13 14  1  0  0  0
 13 26  1  0  0  0
 14 15  1  0  0  0
 15 16  1  0  0  0
 16 17  1  0  0  0
 17 18  1  0  0  0
 18 19  1  0  0  0
 18 25  1  0  0  0
 19 20  1  0  0  0
 20 21  1  0  0  0
 20 24  1  0  0  0
 21 22  1  0  0  0
 21 23  1  0  0  0
 23 51  1  0  0  0
 23 52  1  0  0  0
 24 53  1  0  0  0
 25 54  1  0  0  0
 26 55  1  0  0  0
 27 28  1  0  0  0
 28 29  2  0  0  0
 28 30  1  0  0  0
 30 31  1  0  0  0
 31 32  1  0  0  0
 31 36  1  0  0  0
 32 33  1  0  0  0
 33 34  2  0  0  0
 33 35  1  0  0  0
 35 56  1  0  0  0
 36 37  2  0  0  0
 36 38  1  0  0  0
 38 57  1  0  0  0
 39 40  1  0  0  0
 40 41  2  0  0  0
 40 42  1  0  0  0
 42 43  1  0  0  0
 43 44  1  0  0  0
 43 48  1  0  0  0
 44 45  1  0  0  0
 45 46  2  0  0  0
 45 47  1  0  0  0
 47 58  1  0  0  0
 48 49  2  0  0  0
 48 50  1  0  0  0
 50 59  1  0  0  0
M  END
>  <AUTHOR>
    GENERATED BY OPEN BABEL 2.4.1

>  <CHROM.1>
150.50976473,-166.81508780,41.81697258,-27.69122367,-22.01768332,44.56984413
-113.53315728,76.82518996,121.31329589,-156.37019440,88.31495155,-104.71030212
172.12789428,127.55085129,97.26504729,115.99097976,65.85852789,169.74403802
-63.16702231,-76.29617478,-153.49032580,-176.29163590,-29.14807271,-3.71154263
176.28209502,113.50743564,-66.39611369,18.22462610,127.72128518,-169.15030003
172.50328455,2.14611200,-172.12706799,56.97995969,43.37316030,133.08617262
90.02161382,-178.95767165,12.11842873,-2.71246475,-3.64919561,-7.32709213
-1.96916135,-0.79933701,-1.02282741

>  <COMPND>
    UNNAMED

>  <MASTER>
        0    0    0    0    0    0    0    0  109    0  109    0

>  <Name>
FB1.pdb

>  <RI>
0

>  <Rbt.Current_Directory>
/cluster/tossine/FB1_39T3/p3/1_clust02

>  <Rbt.Executable>
rbdock/0.1.0

>  <Rbt.Library>
librxdock.so/0.1.0

>  <Rbt.Parameter_File>
/cluster/rxdock/data/scripts/dock.prm

>  <Rbt.Receptor>
rx_4.prm

>  <SCORE>
19.6475

>  <SCORE.INTER>
-5.15944

>  <SCORE.INTER.CONST>
1

>  <SCORE.INTER.POLAR>
-3.05866

>  <SCORE.INTER.REPUL>
0.246411

>  <SCORE.INTER.ROT>
32

>  <SCORE.INTER.VDW>
-33.392

>  <SCORE.INTER.norm>
-0.103189

>  <SCORE.INTRA>
22.9838

>  <SCORE.INTRA.DIHEDRAL>
28.359

>  <SCORE.INTRA.DIHEDRAL.0>
47.3121

>  <SCORE.INTRA.POLAR>
1.47808

>  <SCORE.INTRA.POLAR.0>
-1.47808

>  <SCORE.INTRA.REPUL>
0

>  <SCORE.INTRA.REPUL.0>
0

>  <SCORE.INTRA.VDW>
3.77878

>  <SCORE.INTRA.VDW.0>
-2.78316

>  <SCORE.INTRA.norm>
0.459675

>  <SCORE.RESTR>
1.82321

>  <SCORE.RESTR.CAVITY>
1.82321

>  <SCORE.RESTR.norm>
0.0364641

>  <SCORE.SYSTEM>
0

>  <SCORE.SYSTEM.CONST>
0

>  <SCORE.SYSTEM.DIHEDRAL>
0

>  <SCORE.SYSTEM.norm>
0

>  <SCORE.heavy>
50

>  <SCORE.norm>
0.392951

$$$$
