FB1.pdb
  RxDock  10072009493D
librxdock.so/0.1.0
 59 58  0  0  0  0  0  0  0  0999 V2000
   -4.8037   -9.6882   -4.4376 C   0  0  0  0  0  0
   -5.1282   -9.6040   -5.9272 C   0  0  0  0  0  0
   -4.5890   -8.3081   -6.5550 C   0  0  0  0  0  0
   -4.9554   -8.1480   -8.0516 C   0  0  0  0  0  0
   -4.9956   -6.6675   -8.5682 C   0  0  0  0  0  0
   -6.2672   -5.9913   -8.0055 C   0  0  0  0  0  0
   -3.6980   -5.8323   -8.1985 C   0  0  0  0  0  0
   -3.3834   -4.5443   -9.0975 C   0  0  0  0  0  0
   -1.9329   -3.9571   -9.3791 C   0  0  0  0  0  0
   -1.8499   -2.3121   -9.4708 C   0  0  0  0  0  0
   -2.2600   -1.7296   -8.1193 C   0  0  0  0  0  0
   -0.4430   -1.7025   -9.9113 C   0  0  0  0  0  0
    0.9812   -2.4242   -9.6481 C   0  0  0  0  0  0
    2.3094   -1.6156   -9.4529 C   0  0  0  0  0  0
    2.3593   -0.1053   -9.9683 C   0  0  0  0  0  0
    1.6535    1.1058   -9.2405 C   0  0  0  0  0  0
    1.3005    2.3827  -10.0483 C   0  0  0  0  0  0
    1.1890    3.7269   -9.2299 C   0  0  0  0  0  0
    0.4330    4.8754   -9.9096 C   0  0  0  0  0  0
   -0.9865    4.5899  -10.4769 C   0  0  0  0  0  0
   -2.1284    5.6365  -10.3156 C   0  0  0  0  0  0
   -1.9678    6.9388  -11.0875 C   0  0  0  0  0  0
   -3.4439    5.0243  -10.5821 N   0  0  0  0  0  0
   -0.7917    4.4644  -11.9087 O   0  0  0  0  0  0
    0.5467    3.4338   -7.9844 O   0  0  0  0  0  0
    0.8040   -3.1558   -8.4233 O   0  0  0  0  0  0
   -3.9185   -4.8301  -10.4183 O   0  0  0  0  0  0
   -4.8587   -3.9766  -10.9009 C   0  0  0  0  0  0
   -6.0327   -3.9459  -10.5844 O   0  0  0  0  0  0
   -4.1853   -2.9995  -11.8246 C   0  0  0  0  0  0
   -5.1895   -2.1792  -12.6499 C   0  0  0  0  0  0
   -5.5283   -0.8333  -11.9962 C   0  0  0  0  0  0
   -4.2741   -0.0736  -11.6311 C   0  0  0  0  0  0
   -3.6520    0.6281  -12.4211 O   0  0  0  0  0  0
   -3.9029   -0.2380  -10.3528 O   0  0  0  0  0  0
   -4.5250   -1.9480  -14.0142 C   0  0  0  0  0  0
   -4.4496   -0.8487  -14.5415 O   0  0  0  0  0  0
   -4.0754   -3.0630  -14.6063 O   0  0  0  0  0  0
   -3.6571   -5.5201   -6.7492 O   0  0  0  0  0  0
   -2.5942   -4.7758   -6.2651 C   0  0  0  0  0  0
   -1.4231   -5.1305   -6.2987 O   0  0  0  0  0  0
   -3.0435   -3.4342   -5.6712 C   0  0  0  0  0  0
   -2.4278   -3.0668   -4.2854 C   0  0  0  0  0  0
   -1.6655   -1.7348   -4.1628 C   0  0  0  0  0  0
   -0.4301   -1.6854   -5.0147 C   0  0  0  0  0  0
   -0.2086   -2.3875   -5.9918 O   0  0  0  0  0  0
    0.4397   -0.7501   -4.6037 O   0  0  0  0  0  0
   -3.4129   -3.1345   -3.1118 C   0  0  0  0  0  0
   -3.1402   -3.6593   -2.0503 O   0  0  0  0  0  0
   -4.5765   -2.4754   -3.2933 O   0  0  0  0  0  0
   -3.5788    4.2349   -9.9519 H   0  0  0  0  0  0
   -3.4296    4.6143  -11.5187 H   0  0  0  0  0  0
   -0.2076    3.6835  -12.0107 H   0  0  0  0  0  0
    0.8319    4.0989   -7.3311 H   0  0  0  0  0  0
    0.4993   -2.5330   -7.7424 H   0  0  0  0  0  0
   -4.4985   -0.7936   -9.8142 H   0  0  0  0  0  0
   -3.6297   -2.9137  -15.4769 H   0  0  0  0  0  0
    0.1255   -0.4389   -3.7286 H   0  0  0  0  0  0
   -4.6840   -2.0477   -4.1719 H   0  0  0  0  0  0
  1  2  1  0  0  0
  2  3  1  0  0  0
  3  4  1  0  0  0
  4  5  1  0  0  0
  5  6  1  0  0  0
  5  7  1  0  0  0
  7  8  1  0  0  0
  7 39  1  0  0  0
  8  9  1  0  0  0
  8 27  1  0  0  0
  9 10  1  0  0  0
 10 11  1  0  0  0
 10 12  1  0  0  0
 12 13  1  0  0  0
 13 14  1  0  0  0
 13 26  1  0  0  0
 14 15  1  0  0  0
 15 16  1  0  0  0
 16 17  1  0  0  0
 17 18  1  0  0  0
 18 19  1  0  0  0
 18 25  1  0  0  0
 19 20  1  0  0  0
 20 21  1  0  0  0
 20 24  1  0  0  0
 21 22  1  0  0  0
 21 23  1  0  0  0
 23 51  1  0  0  0
 23 52  1  0  0  0
 24 53  1  0  0  0
 25 54  1  0  0  0
 26 55  1  0  0  0
 27 28  1  0  0  0
 28 29  2  0  0  0
 28 30  1  0  0  0
 30 31  1  0  0  0
 31 32  1  0  0  0
 31 36  1  0  0  0
 32 33  1  0  0  0
 33 34  2  0  0  0
 33 35  1  0  0  0
 35 56  1  0  0  0
 36 37  2  0  0  0
 36 38  1  0  0  0
 38 57  1  0  0  0
 39 40  1  0  0  0
 40 41  2  0  0  0
 40 42  1  0  0  0
 42 43  1  0  0  0
 43 44  1  0  0  0
 43 48  1  0  0  0
 44 45  1  0  0  0
 45 46  2  0  0  0
 45 47  1  0  0  0
 47 58  1  0  0  0
 48 49  2  0  0  0
 48 50  1  0  0  0
 50 59  1  0  0  0
M  END
>  <AUTHOR>
    GENERATED BY OPEN BABEL 2.4.1

>  <CHROM.1>
-177.18997242,154.87037184,-73.51307478,157.99877237,-151.12521869,-179.02952819
-143.95351727,121.08705853,62.58844163,-27.91397582,-150.70878792,-19.34712010
-54.98436899,74.65579957,-156.99548005,-154.68652758,-161.60731462,51.52125877
153.94757914,139.63864500,67.55582106,63.11710345,57.35212003,-77.56603561
168.00213078,94.17000685,50.99625899,-130.36577759,83.78985754,-2.15315059
-178.76858704,-62.66182705,133.61253163,123.44807512,-64.09066908,134.67483107
20.94814570,10.82046538,2.10290725,-2.44949702,-1.87606429,-8.74360638,-2.07606811
-0.94541082,-0.84681173

>  <COMPND>
    UNNAMED

>  <MASTER>
        0    0    0    0    0    0    0    0  109    0  109    0

>  <Name>
FB1.pdb

>  <RI>
0

>  <Rbt.Current_Directory>
/cluster/tossine/FB1_39T3/p3/1_clust02

>  <Rbt.Executable>
rbdock/0.1.0

>  <Rbt.Library>
librxdock.so/0.1.0

>  <Rbt.Parameter_File>
/cluster/rxdock/data/scripts/dock.prm

>  <Rbt.Receptor>
rx_4.prm

>  <SCORE>
35.3331

>  <SCORE.INTER>
4.82058

>  <SCORE.INTER.CONST>
1

>  <SCORE.INTER.POLAR>
-3.86593

>  <SCORE.INTER.REPUL>
0.360295

>  <SCORE.INTER.ROT>
32

>  <SCORE.INTER.VDW>
-21.2367

>  <SCORE.INTER.norm>
0.0964116

>  <SCORE.INTRA>
29.9055

>  <SCORE.INTRA.DIHEDRAL>
57.0714

>  <SCORE.INTRA.DIHEDRAL.0>
47.3121

>  <SCORE.INTRA.POLAR>
0.588146

>  <SCORE.INTRA.POLAR.0>
-1.47808

>  <SCORE.INTRA.REPUL>
0

>  <SCORE.INTRA.REPUL.0>
0

>  <SCORE.INTRA.VDW>
-0.629913

>  <SCORE.INTRA.VDW.0>
-2.78316

>  <SCORE.INTRA.norm>
0.59811

>  <SCORE.RESTR>
0.607056

>  <SCORE.RESTR.CAVITY>
0.607056

>  <SCORE.RESTR.norm>
0.0121411

>  <SCORE.SYSTEM>
0

>  <SCORE.SYSTEM.CONST>
0

>  <SCORE.SYSTEM.DIHEDRAL>
0

>  <SCORE.SYSTEM.norm>
0

>  <SCORE.heavy>
50

>  <SCORE.norm>
0.706663

$$$$
