FB1.pdb
  RxDock  10072009123D
librxdock.so/0.1.0
 59 58  0  0  0  0  0  0  0  0999 V2000
    0.5371   -3.3367  -10.9863 C   0  0  0  0  0  0
   -0.0102   -2.0263  -10.4255 C   0  0  0  0  0  0
    0.6251   -0.8046  -11.1097 C   0  0  0  0  0  0
    0.1656    0.5476  -10.5098 C   0  0  0  0  0  0
    1.3272    1.5264  -10.1182 C   0  0  0  0  0  0
    2.2846    1.6514  -11.3258 C   0  0  0  0  0  0
    0.8201    2.9539   -9.6459 C   0  0  0  0  0  0
    1.8027    3.7976   -8.7030 C   0  0  0  0  0  0
    2.7872    3.1773   -7.6194 C   0  0  0  0  0  0
    2.2226    1.8316   -6.8503 C   0  0  0  0  0  0
    2.5308    1.9597   -5.3594 C   0  0  0  0  0  0
    0.6739    1.5053   -7.0502 C   0  0  0  0  0  0
   -0.3315    1.1033   -5.8476 C   0  0  0  0  0  0
    0.1191    0.2159   -4.6370 C   0  0  0  0  0  0
   -0.7853   -1.0383   -4.2393 C   0  0  0  0  0  0
   -0.9979   -2.3069   -5.1558 C   0  0  0  0  0  0
   -0.0042   -2.5887   -6.3137 C   0  0  0  0  0  0
   -0.3601   -3.7905   -7.2720 C   0  0  0  0  0  0
   -1.6446   -3.6442   -8.0971 C   0  0  0  0  0  0
   -2.4042   -4.9354   -8.5142 C   0  0  0  0  0  0
   -3.9465   -4.9118   -8.7290 C   0  0  0  0  0  0
   -4.5492   -6.1118   -9.4461 C   0  0  0  0  0  0
   -4.6500   -4.6484   -7.4593 N   0  0  0  0  0  0
   -1.8503   -5.2861   -9.8080 O   0  0  0  0  0  0
    0.7385   -3.9793   -8.1704 O   0  0  0  0  0  0
   -0.7318    2.3557   -5.2664 O   0  0  0  0  0  0
    2.6733    4.5487   -9.5920 O   0  0  0  0  0  0
    3.3405    5.6035   -9.0558 C   0  0  0  0  0  0
    4.5262    5.8438   -9.1814 O   0  0  0  0  0  0
    2.3466    6.4906   -8.3581 C   0  0  0  0  0  0
    1.8069    7.6038   -9.2701 C   0  0  0  0  0  0
    1.1536    8.7460   -8.4813 C   0  0  0  0  0  0
   -0.0066    8.2432   -7.6540 C   0  0  0  0  0  0
   -0.8586    7.4707   -8.0794 O   0  0  0  0  0  0
   -0.0170    8.7226   -6.4014 O   0  0  0  0  0  0
    3.0169    8.1313  -10.0533 C   0  0  0  0  0  0
    3.1226    8.0289  -11.2661 O   0  0  0  0  0  0
    3.9765    8.6724   -9.2902 O   0  0  0  0  0  0
    0.3303    3.7550  -10.7940 O   0  0  0  0  0  0
   -0.5293    4.8112  -10.5417 C   0  0  0  0  0  0
   -0.2610    5.7738   -9.8348 O   0  0  0  0  0  0
   -1.8788    4.6484  -11.2536 C   0  0  0  0  0  0
   -1.9270    3.5638  -12.3742 C   0  0  0  0  0  0
   -2.9763    2.4438  -12.2521 C   0  0  0  0  0  0
   -4.3116    2.9402  -11.7778 C   0  0  0  0  0  0
   -4.5040    3.9559  -11.1236 O   0  0  0  0  0  0
   -5.3217    2.1474  -12.1671 O   0  0  0  0  0  0
   -2.0251    4.1229  -13.7990 C   0  0  0  0  0  0
   -1.2188    3.8586  -14.6689 O   0  0  0  0  0  0
   -3.1317    4.8495  -14.0614 O   0  0  0  0  0  0
   -5.6258   -4.4308   -7.6569 H   0  0  0  0  0  0
   -4.2684   -3.7948   -7.0454 H   0  0  0  0  0  0
   -1.0080   -5.7429   -9.6001 H   0  0  0  0  0  0
    0.5744   -4.7907   -8.6854 H   0  0  0  0  0  0
   -1.2288    2.8533   -5.9371 H   0  0  0  0  0  0
   -0.9028    8.8403   -6.0077 H   0  0  0  0  0  0
    4.8887    8.6010   -9.6665 H   0  0  0  0  0  0
   -5.0295    1.7036  -12.9911 H   0  0  0  0  0  0
   -3.1974    5.1977  -14.9782 H   0  0  0  0  0  0
  1  2  1  0  0  0
  2  3  1  0  0  0
  3  4  1  0  0  0
  4  5  1  0  0  0
  5  6  1  0  0  0
  5  7  1  0  0  0
  7  8  1  0  0  0
  7 39  1  0  0  0
  8  9  1  0  0  0
  8 27  1  0  0  0
  9 10  1  0  0  0
 10 11  1  0  0  0
 10 12  1  0  0  0
 12 13  1  0  0  0
 13 14  1  0  0  0
 13 26  1  0  0  0
 14 15  1  0  0  0
 15 16  1  0  0  0
 16 17  1  0  0  0
 17 18  1  0  0  0
 18 19  1  0  0  0
 18 25  1  0  0  0
 19 20  1  0  0  0
 20 21  1  0  0  0
 20 24  1  0  0  0
 21 22  1  0  0  0
 21 23  1  0  0  0
 23 51  1  0  0  0
 23 52  1  0  0  0
 24 53  1  0  0  0
 25 54  1  0  0  0
 26 55  1  0  0  0
 27 28  1  0  0  0
 28 29  2  0  0  0
 28 30  1  0  0  0
 30 31  1  0  0  0
 31 32  1  0  0  0
 31 36  1  0  0  0
 32 33  1  0  0  0
 33 34  2  0  0  0
 33 35  1  0  0  0
 35 56  1  0  0  0
 36 37  2  0  0  0
 36 38  1  0  0  0
 38 57  1  0  0  0
 39 40  1  0  0  0
 40 41  2  0  0  0
 40 42  1  0  0  0
 42 43  1  0  0  0
 43 44  1  0  0  0
 43 48  1  0  0  0
 44 45  1  0  0  0
 45 46  2  0  0  0
 45 47  1  0  0  0
 47 58  1  0  0  0
 48 49  2  0  0  0
 48 50  1  0  0  0
 50 59  1  0  0  0
M  END
>  <AUTHOR>
    GENERATED BY OPEN BABEL 2.4.1

>  <CHROM.1>
-176.32746623,128.92904051,50.46173950,156.38007928,-33.69836594,159.21059557
-34.66951401,162.44370519,-136.47019431,-133.82309724,-36.64288667,-130.02164028
64.06856266,65.73560475,18.24420242,-174.16740665,64.10027939,-151.78052822
172.74191065,151.14331214,165.91914264,80.56591085,167.38196104,131.99141530
-92.23530901,-162.19010526,-59.69267696,115.58612047,-44.82378463,148.47885031
151.01742195,59.66039697,-14.39515561,123.23352948,41.05814492,123.27857686
-24.15621223,-26.81864805,-179.29657148,-0.18628367,2.16535754,-9.21704602
2.04231617,0.85801864,2.65759694

>  <COMPND>
    UNNAMED

>  <MASTER>
        0    0    0    0    0    0    0    0  109    0  109    0

>  <Name>
FB1.pdb

>  <RI>
0

>  <Rbt.Current_Directory>
/cluster/tossine/FB1_39T3/p3/1_clust02

>  <Rbt.Executable>
rbdock/0.1.0

>  <Rbt.Library>
librxdock.so/0.1.0

>  <Rbt.Parameter_File>
/cluster/rxdock/data/scripts/dock.prm

>  <Rbt.Receptor>
rx_3.prm

>  <SCORE>
49.0568

>  <SCORE.INTER>
2.03165

>  <SCORE.INTER.CONST>
1

>  <SCORE.INTER.POLAR>
-1.6292

>  <SCORE.INTER.REPUL>
0.665126

>  <SCORE.INTER.ROT>
32

>  <SCORE.INTER.VDW>
-33.1547

>  <SCORE.INTER.norm>
0.0406329

>  <SCORE.INTRA>
42.4268

>  <SCORE.INTRA.DIHEDRAL>
66.9221

>  <SCORE.INTRA.DIHEDRAL.0>
47.3121

>  <SCORE.INTRA.POLAR>
1.47808

>  <SCORE.INTRA.POLAR.0>
-1.47808

>  <SCORE.INTRA.REPUL>
0.0450788

>  <SCORE.INTRA.REPUL.0>
0

>  <SCORE.INTRA.VDW>
3.7149

>  <SCORE.INTRA.VDW.0>
-2.78316

>  <SCORE.INTRA.norm>
0.848536

>  <SCORE.RESTR>
4.59834

>  <SCORE.RESTR.CAVITY>
4.59834

>  <SCORE.RESTR.norm>
0.0919667

>  <SCORE.SYSTEM>
0

>  <SCORE.SYSTEM.CONST>
0

>  <SCORE.SYSTEM.DIHEDRAL>
0

>  <SCORE.SYSTEM.norm>
0

>  <SCORE.heavy>
50

>  <SCORE.norm>
0.981135

$$$$
