FB1.pdb
  RxDock  10072008463D
librxdock.so/0.1.0
 59 58  0  0  0  0  0  0  0  0999 V2000
    1.5715    2.4111   -8.9839 C   0  0  0  0  0  0
    0.9934    1.8530  -10.2822 C   0  0  0  0  0  0
   -0.0862    0.7913  -10.0148 C   0  0  0  0  0  0
    0.4629   -0.6571   -9.9975 C   0  0  0  0  0  0
   -0.2080   -1.6312  -11.0278 C   0  0  0  0  0  0
    0.4620   -3.0181  -10.8920 C   0  0  0  0  0  0
   -1.7821   -1.7427  -10.8615 C   0  0  0  0  0  0
   -2.3237   -2.4008   -9.5051 C   0  0  0  0  0  0
   -2.3056   -3.9553   -9.1714 C   0  0  0  0  0  0
   -3.7463   -4.5786   -8.6642 C   0  0  0  0  0  0
   -4.6428   -4.7830   -9.8843 C   0  0  0  0  0  0
   -3.6698   -5.9324   -7.8239 C   0  0  0  0  0  0
   -2.8422   -6.0981   -6.4431 C   0  0  0  0  0  0
   -3.2862   -7.0866   -5.3110 C   0  0  0  0  0  0
   -3.4702   -8.6287   -5.6813 C   0  0  0  0  0  0
   -4.8680   -9.3251   -5.9179 C   0  0  0  0  0  0
   -5.8971   -9.3878   -4.7584 C   0  0  0  0  0  0
   -5.5213  -10.3042   -3.5303 C   0  0  0  0  0  0
   -6.5433  -10.3621   -2.3881 C   0  0  0  0  0  0
   -6.4006  -11.4904   -1.3275 C   0  0  0  0  0  0
   -4.9986  -11.8862   -0.7769 C   0  0  0  0  0  0
   -4.8853  -12.0516    0.7321 C   0  0  0  0  0  0
   -4.4745  -13.0735   -1.4784 N   0  0  0  0  0  0
   -7.1337  -11.0053   -0.1738 O   0  0  0  0  0  0
   -5.3099  -11.6331   -4.0192 O   0  0  0  0  0  0
   -1.5383   -6.5500   -6.8458 O   0  0  0  0  0  0
   -1.5632   -1.7923   -8.4264 O   0  0  0  0  0  0
   -2.0075   -2.0072   -7.1608 C   0  0  0  0  0  0
   -3.1454   -2.2882   -6.8358 O   0  0  0  0  0  0
   -0.8317   -1.9404   -6.2257 C   0  0  0  0  0  0
   -0.0524   -0.6215   -6.3505 C   0  0  0  0  0  0
   -0.1944    0.2661   -5.1074 C   0  0  0  0  0  0
    0.3148    1.6635   -5.3743 C   0  0  0  0  0  0
   -0.3762    2.6703   -5.2614 O   0  0  0  0  0  0
    1.6026    1.7009   -5.7471 O   0  0  0  0  0  0
    1.4175   -1.0171   -6.5484 C   0  0  0  0  0  0
    2.0930   -0.6251   -7.4877 O   0  0  0  0  0  0
    1.8888   -1.8712   -5.6295 O   0  0  0  0  0  0
   -2.4443   -0.4478  -11.1524 O   0  0  0  0  0  0
   -3.8266   -0.4177  -11.2322 C   0  0  0  0  0  0
   -4.5307   -1.3865  -11.4854 O   0  0  0  0  0  0
   -4.3965    0.9816  -10.9649 C   0  0  0  0  0  0
   -4.6903    1.8463  -12.2300 C   0  0  0  0  0  0
   -5.6833    3.0149  -12.0927 C   0  0  0  0  0  0
   -5.0190    4.3079  -11.7168 C   0  0  0  0  0  0
   -4.5706    5.1338  -12.5000 O   0  0  0  0  0  0
   -4.9750    4.4952  -10.3889 O   0  0  0  0  0  0
   -3.4415    2.3933  -12.9326 C   0  0  0  0  0  0
   -2.3521    2.4459  -12.3967 O   0  0  0  0  0  0
   -3.6034    2.7179  -14.2325 O   0  0  0  0  0  0
   -4.1098  -12.7908   -2.3870 H   0  0  0  0  0  0
   -5.2554  -13.6985   -1.6908 H   0  0  0  0  0  0
   -6.6612  -10.1888    0.0933 H   0  0  0  0  0  0
   -4.4652  -11.6474   -4.5058 H   0  0  0  0  0  0
   -1.0400   -6.7828   -6.0445 H   0  0  0  0  0  0
    1.8143    1.2093   -6.5638 H   0  0  0  0  0  0
    2.8673   -2.0124   -5.6646 H   0  0  0  0  0  0
   -5.0525    3.6088   -9.9771 H   0  0  0  0  0  0
   -2.8283    3.1477  -14.6574 H   0  0  0  0  0  0
  1  2  1  0  0  0
  2  3  1  0  0  0
  3  4  1  0  0  0
  4  5  1  0  0  0
  5  6  1  0  0  0
  5  7  1  0  0  0
  7  8  1  0  0  0
  7 39  1  0  0  0
  8  9  1  0  0  0
  8 27  1  0  0  0
  9 10  1  0  0  0
 10 11  1  0  0  0
 10 12  1  0  0  0
 12 13  1  0  0  0
 13 14  1  0  0  0
 13 26  1  0  0  0
 14 15  1  0  0  0
 15 16  1  0  0  0
 16 17  1  0  0  0
 17 18  1  0  0  0
 18 19  1  0  0  0
 18 25  1  0  0  0
 19 20  1  0  0  0
 20 21  1  0  0  0
 20 24  1  0  0  0
 21 22  1  0  0  0
 21 23  1  0  0  0
 23 51  1  0  0  0
 23 52  1  0  0  0
 24 53  1  0  0  0
 25 54  1  0  0  0
 26 55  1  0  0  0
 27 28  1  0  0  0
 28 29  2  0  0  0
 28 30  1  0  0  0
 30 31  1  0  0  0
 31 32  1  0  0  0
 31 36  1  0  0  0
 32 33  1  0  0  0
 33 34  2  0  0  0
 33 35  1  0  0  0
 35 56  1  0  0  0
 36 37  2  0  0  0
 36 38  1  0  0  0
 38 57  1  0  0  0
 39 40  1  0  0  0
 40 41  2  0  0  0
 40 42  1  0  0  0
 42 43  1  0  0  0
 43 44  1  0  0  0
 43 48  1  0  0  0
 44 45  1  0  0  0
 45 46  2  0  0  0
 45 47  1  0  0  0
 47 58  1  0  0  0
 48 49  2  0  0  0
 48 50  1  0  0  0
 50 59  1  0  0  0
M  END
>  <AUTHOR>
    GENERATED BY OPEN BABEL 2.4.1

>  <CHROM.1>
-93.39611903,-122.49335912,179.32664483,-65.63484463,-75.60175075,171.30215225
-129.07034782,168.24952468,78.02748710,58.09175430,149.40342680,56.30884828
-172.27883221,-102.19292920,-62.23224933,-67.99455686,-179.96728118,165.48126621
72.61717478,41.50329568,133.98322484,-62.11112869,78.21727879,-23.95215830
55.27880135,111.30659512,-167.34359483,125.52548257,121.17423713,60.00208318
-170.45755390,-23.31207153,95.61514114,159.18176314,90.52596791,-17.48149344
89.31513195,22.44300588,174.38785500,-2.64377073,-2.87315322,-7.66679806
-1.33591007,0.58611798,2.44196801

>  <COMPND>
    UNNAMED

>  <MASTER>
        0    0    0    0    0    0    0    0  109    0  109    0

>  <Name>
FB1.pdb

>  <RI>
0

>  <Rbt.Current_Directory>
/cluster/tossine/FB1_39T3/p3/1_clust02

>  <Rbt.Executable>
rbdock/0.1.0

>  <Rbt.Library>
librxdock.so/0.1.0

>  <Rbt.Parameter_File>
/cluster/rxdock/data/scripts/dock.prm

>  <Rbt.Receptor>
rx_2.prm

>  <SCORE>
27.3977

>  <SCORE.INTER>
4.14382

>  <SCORE.INTER.CONST>
1

>  <SCORE.INTER.POLAR>
-1.87917

>  <SCORE.INTER.REPUL>
0.51857

>  <SCORE.INTER.ROT>
32

>  <SCORE.INTER.VDW>
-29.4599

>  <SCORE.INTER.norm>
0.0828764

>  <SCORE.INTRA>
23.0758

>  <SCORE.INTRA.DIHEDRAL>
37.4515

>  <SCORE.INTRA.DIHEDRAL.0>
47.3121

>  <SCORE.INTRA.POLAR>
1.34057

>  <SCORE.INTRA.POLAR.0>
-1.47808

>  <SCORE.INTRA.REPUL>
0

>  <SCORE.INTRA.REPUL.0>
0

>  <SCORE.INTRA.VDW>
-0.207816

>  <SCORE.INTRA.VDW.0>
-2.78316

>  <SCORE.INTRA.norm>
0.461517

>  <SCORE.RESTR>
0.178014

>  <SCORE.RESTR.CAVITY>
0.178014

>  <SCORE.RESTR.norm>
0.00356028

>  <SCORE.SYSTEM>
0

>  <SCORE.SYSTEM.CONST>
0

>  <SCORE.SYSTEM.DIHEDRAL>
0

>  <SCORE.SYSTEM.norm>
0

>  <SCORE.heavy>
50

>  <SCORE.norm>
0.547954

$$$$
