FB1.pdb
  RxDock  10072007233D
librxdock.so/0.1.0
 59 58  0  0  0  0  0  0  0  0999 V2000
  -10.2508   -4.3218   -8.5846 C   0  0  0  0  0  0
   -9.0065   -4.9904   -8.0049 C   0  0  0  0  0  0
   -7.8645   -5.0563   -9.0323 C   0  0  0  0  0  0
   -6.4701   -5.2719   -8.3929 C   0  0  0  0  0  0
   -5.6543   -6.4782   -8.9758 C   0  0  0  0  0  0
   -5.4996   -6.2684  -10.4998 C   0  0  0  0  0  0
   -4.2404   -6.6796   -8.2842 C   0  0  0  0  0  0
   -3.3270   -5.3757   -8.1069 C   0  0  0  0  0  0
   -3.7049   -3.9176   -8.6162 C   0  0  0  0  0  0
   -3.2595   -3.5815  -10.1686 C   0  0  0  0  0  0
   -4.5185   -3.2805  -10.9801 C   0  0  0  0  0  0
   -2.2058   -2.3988  -10.3575 C   0  0  0  0  0  0
   -0.6421   -2.5034   -9.9544 C   0  0  0  0  0  0
   -0.0475   -1.7767   -8.6997 C   0  0  0  0  0  0
    0.7891   -0.4359   -8.9268 C   0  0  0  0  0  0
    0.2196    0.8585   -9.6301 C   0  0  0  0  0  0
    1.1922    1.9941  -10.0448 C   0  0  0  0  0  0
    1.4926    3.0978   -8.9582 C   0  0  0  0  0  0
    2.5512    4.1444   -9.3274 C   0  0  0  0  0  0
    2.7342    5.3709   -8.3891 C   0  0  0  0  0  0
    3.8085    6.4539   -8.7026 C   0  0  0  0  0  0
    3.6894    7.1569  -10.0477 C   0  0  0  0  0  0
    3.9047    7.4326   -7.6029 N   0  0  0  0  0  0
    1.4658    6.0719   -8.4488 O   0  0  0  0  0  0
    0.2657    3.7753   -8.6659 O   0  0  0  0  0  0
   -0.4136   -3.9033   -9.7206 O   0  0  0  0  0  0
   -3.1209   -5.2152   -6.6772 O   0  0  0  0  0  0
   -2.1666   -4.3308   -6.2869 C   0  0  0  0  0  0
   -1.1677   -4.0281   -6.9114 O   0  0  0  0  0  0
   -2.5999   -3.7043   -4.9903 C   0  0  0  0  0  0
   -1.6225   -2.6236   -4.5012 C   0  0  0  0  0  0
   -1.8048   -1.2891   -5.2355 C   0  0  0  0  0  0
   -0.5692   -0.4275   -5.1153 C   0  0  0  0  0  0
   -0.4209    0.4286   -4.2499 O   0  0  0  0  0  0
    0.3577   -0.6893   -6.0486 O   0  0  0  0  0  0
   -1.9085   -2.4426   -3.0040 C   0  0  0  0  0  0
   -3.0145   -2.6064   -2.5117 O   0  0  0  0  0  0
   -0.8524   -2.0401   -2.2839 O   0  0  0  0  0  0
   -4.3670   -7.4439   -7.0194 O   0  0  0  0  0  0
   -4.7763   -8.7653   -7.0860 C   0  0  0  0  0  0
   -5.1877   -9.3167   -8.0985 O   0  0  0  0  0  0
   -4.6583   -9.4818   -5.7343 C   0  0  0  0  0  0
   -5.9982   -9.9923   -5.1191 C   0  0  0  0  0  0
   -5.9265  -11.0753   -4.0271 C   0  0  0  0  0  0
   -5.6184  -10.5177   -2.6674 C   0  0  0  0  0  0
   -6.2652  -10.7217   -1.6492 O   0  0  0  0  0  0
   -4.5126   -9.7577   -2.6629 O   0  0  0  0  0  0
   -6.9238   -8.8854   -4.5991 C   0  0  0  0  0  0
   -8.0612   -8.7338   -4.9990 O   0  0  0  0  0  0
   -6.4302   -8.1473   -3.5828 O   0  0  0  0  0  0
    3.5022    7.0273   -6.7589 H   0  0  0  0  0  0
    3.3056    8.2314   -7.8231 H   0  0  0  0  0  0
    1.3787    6.3449   -9.3865 H   0  0  0  0  0  0
    0.0003    4.2788   -9.4575 H   0  0  0  0  0  0
   -0.9609   -4.1752   -8.9649 H   0  0  0  0  0  0
    1.2148   -0.2389   -5.9224 H   0  0  0  0  0  0
   -1.0277   -1.9494   -1.3145 H   0  0  0  0  0  0
   -3.9837  -10.0353   -1.8854 H   0  0  0  0  0  0
   -5.5106   -8.3663   -3.3131 H   0  0  0  0  0  0
  1  2  1  0  0  0
  2  3  1  0  0  0
  3  4  1  0  0  0
  4  5  1  0  0  0
  5  6  1  0  0  0
  5  7  1  0  0  0
  7  8  1  0  0  0
  7 39  1  0  0  0
  8  9  1  0  0  0
  8 27  1  0  0  0
  9 10  1  0  0  0
 10 11  1  0  0  0
 10 12  1  0  0  0
 12 13  1  0  0  0
 13 14  1  0  0  0
 13 26  1  0  0  0
 14 15  1  0  0  0
 15 16  1  0  0  0
 16 17  1  0  0  0
 17 18  1  0  0  0
 18 19  1  0  0  0
 18 25  1  0  0  0
 19 20  1  0  0  0
 20 21  1  0  0  0
 20 24  1  0  0  0
 21 22  1  0  0  0
 21 23  1  0  0  0
 23 51  1  0  0  0
 23 52  1  0  0  0
 24 53  1  0  0  0
 25 54  1  0  0  0
 26 55  1  0  0  0
 27 28  1  0  0  0
 28 29  2  0  0  0
 28 30  1  0  0  0
 30 31  1  0  0  0
 31 32  1  0  0  0
 31 36  1  0  0  0
 32 33  1  0  0  0
 33 34  2  0  0  0
 33 35  1  0  0  0
 35 56  1  0  0  0
 36 37  2  0  0  0
 36 38  1  0  0  0
 38 57  1  0  0  0
 39 40  1  0  0  0
 40 41  2  0  0  0
 40 42  1  0  0  0
 42 43  1  0  0  0
 43 44  1  0  0  0
 43 48  1  0  0  0
 44 45  1  0  0  0
 45 46  2  0  0  0
 45 47  1  0  0  0
 47 58  1  0  0  0
 48 49  2  0  0  0
 48 50  1  0  0  0
 50 59  1  0  0  0
M  END
>  <AUTHOR>
    GENERATED BY OPEN BABEL 2.4.1

>  <CHROM.1>
160.61144489,126.91226221,57.05633381,-47.58525604,-2.38795428,65.89933640
-87.80121118,167.58623831,118.67415107,71.65880117,-106.54066879,-102.61803751
-63.36613990,58.50733766,-168.06344317,-88.35195514,174.59175885,171.03450102
-67.48881533,179.07472790,58.38477922,-62.54309231,19.42513139,-28.75964737
-176.70259480,78.94639172,-159.69504044,-30.82030249,-94.10424135,-171.79462145
-178.23576277,-8.57227745,117.27833200,161.22146640,81.21017871,122.24347507
127.49681256,-133.91881182,3.02877045,-2.63237291,-3.19041448,-7.01063145
2.56409895,0.88844818,2.03521992

>  <COMPND>
    UNNAMED

>  <MASTER>
        0    0    0    0    0    0    0    0  109    0  109    0

>  <Name>
FB1.pdb

>  <RI>
0

>  <Rbt.Current_Directory>
/cluster/tossine/FB1_39T3/p3/1_clust02

>  <Rbt.Executable>
rbdock/0.1.0

>  <Rbt.Library>
librxdock.so/0.1.0

>  <Rbt.Parameter_File>
/cluster/rxdock/data/scripts/dock.prm

>  <Rbt.Receptor>
rx_0.prm

>  <SCORE>
42.0956

>  <SCORE.INTER>
22.1275

>  <SCORE.INTER.CONST>
1

>  <SCORE.INTER.POLAR>
-1.01901

>  <SCORE.INTER.REPUL>
0.855405

>  <SCORE.INTER.ROT>
32

>  <SCORE.INTER.VDW>
-16.0849

>  <SCORE.INTER.norm>
0.44255

>  <SCORE.INTRA>
14.6553

>  <SCORE.INTRA.DIHEDRAL>
28.0462

>  <SCORE.INTRA.DIHEDRAL.0>
47.3121

>  <SCORE.INTRA.POLAR>
-0.218624

>  <SCORE.INTRA.POLAR.0>
-1.47808

>  <SCORE.INTRA.REPUL>
0.01619

>  <SCORE.INTRA.REPUL.0>
0

>  <SCORE.INTRA.VDW>
1.29458

>  <SCORE.INTRA.VDW.0>
-2.78316

>  <SCORE.INTRA.norm>
0.293106

>  <SCORE.RESTR>
5.3128

>  <SCORE.RESTR.CAVITY>
5.3128

>  <SCORE.RESTR.norm>
0.106256

>  <SCORE.SYSTEM>
0

>  <SCORE.SYSTEM.CONST>
0

>  <SCORE.SYSTEM.DIHEDRAL>
0

>  <SCORE.SYSTEM.norm>
0

>  <SCORE.heavy>
50

>  <SCORE.norm>
0.841912

$$$$
