FB1.pdb
  RxDock  10072008083D
librxdock.so/0.1.0
 59 58  0  0  0  0  0  0  0  0999 V2000
    1.8367    0.2921  -11.3884 C   0  0  0  0  0  0
    2.7477    0.1841  -10.1678 C   0  0  0  0  0  0
    3.0794   -1.2794   -9.8326 C   0  0  0  0  0  0
    1.8313   -2.1937   -9.7566 C   0  0  0  0  0  0
    1.3939   -2.5969   -8.3052 C   0  0  0  0  0  0
    2.5177   -2.1837   -7.3271 C   0  0  0  0  0  0
    0.0023   -1.9730   -7.8669 C   0  0  0  0  0  0
   -0.8033   -1.1447   -8.9765 C   0  0  0  0  0  0
   -2.3453   -1.3307   -9.3168 C   0  0  0  0  0  0
   -2.7393   -1.1349  -10.9067 C   0  0  0  0  0  0
   -1.6279   -1.7434  -11.7603 C   0  0  0  0  0  0
   -4.1484   -1.7295  -11.3602 C   0  0  0  0  0  0
   -4.4109   -3.2923  -11.6881 C   0  0  0  0  0  0
   -5.2824   -4.2099  -10.7636 C   0  0  0  0  0  0
   -5.6568   -5.6721  -11.2840 C   0  0  0  0  0  0
   -6.0296   -6.8827  -10.3405 C   0  0  0  0  0  0
   -7.0977   -6.6876   -9.2322 C   0  0  0  0  0  0
   -7.6916   -7.9986   -8.5860 C   0  0  0  0  0  0
   -6.6748   -8.9971   -8.0187 C   0  0  0  0  0  0
   -5.5337   -8.4532   -7.1130 C   0  0  0  0  0  0
   -4.5005   -9.4262   -6.4717 C   0  0  0  0  0  0
   -3.6134   -8.8478   -5.3782 C   0  0  0  0  0  0
   -5.1583  -10.6658   -6.0165 N   0  0  0  0  0  0
   -4.7518   -7.5950   -7.9824 O   0  0  0  0  0  0
   -8.5814   -7.6088   -7.5343 O   0  0  0  0  0  0
   -5.0818   -3.2954  -12.9596 O   0  0  0  0  0  0
   -0.6831    0.2554   -8.6052 O   0  0  0  0  0  0
    0.3995    0.6061   -7.8634 C   0  0  0  0  0  0
    1.5257    0.1616   -7.9794 O   0  0  0  0  0  0
   -0.0009    1.7176   -6.9330 C   0  0  0  0  0  0
    1.1262    2.7395   -6.7145 C   0  0  0  0  0  0
    2.4079    2.0950   -6.1711 C   0  0  0  0  0  0
    2.3170    1.8750   -4.6789 C   0  0  0  0  0  0
    1.9628    0.8173   -4.1695 O   0  0  0  0  0  0
    2.6639    2.9515   -3.9580 O   0  0  0  0  0  0
    1.3966    3.3693   -8.0879 C   0  0  0  0  0  0
    2.0834    2.8330   -8.9441 O   0  0  0  0  0  0
    0.8562    4.5842   -8.2552 O   0  0  0  0  0  0
   -0.8530   -2.9860   -7.2019 O   0  0  0  0  0  0
   -0.7267   -3.1594   -5.8337 C   0  0  0  0  0  0
    0.2974   -2.9497   -5.1967 O   0  0  0  0  0  0
   -2.0277   -3.6502   -5.1849 C   0  0  0  0  0  0
   -3.1660   -2.5901   -5.0636 C   0  0  0  0  0  0
   -4.0764   -2.6449   -3.8232 C   0  0  0  0  0  0
   -3.3196   -2.8952   -2.5507 C   0  0  0  0  0  0
   -2.3278   -3.6024   -2.4377 O   0  0  0  0  0  0
   -3.8380   -2.2313   -1.5063 O   0  0  0  0  0  0
   -2.7032   -1.1364   -5.2217 C   0  0  0  0  0  0
   -3.4418   -0.2447   -5.5902 O   0  0  0  0  0  0
   -1.4396   -0.8839   -4.8207 O   0  0  0  0  0  0
   -5.7883  -10.4462   -5.2462 H   0  0  0  0  0  0
   -4.4500  -11.2812   -5.6102 H   0  0  0  0  0  0
   -3.9532   -7.3744   -7.4580 H   0  0  0  0  0  0
   -8.0791   -7.0715   -6.8944 H   0  0  0  0  0  0
   -5.9389   -3.7393  -12.8463 H   0  0  0  0  0  0
    2.6542    3.7987   -4.4433 H   0  0  0  0  0  0
    0.3025    4.8948   -7.4964 H   0  0  0  0  0  0
   -3.4101   -2.5939   -0.7021 H   0  0  0  0  0  0
   -1.1722    0.0617   -4.8463 H   0  0  0  0  0  0
  1  2  1  0  0  0
  2  3  1  0  0  0
  3  4  1  0  0  0
  4  5  1  0  0  0
  5  6  1  0  0  0
  5  7  1  0  0  0
  7  8  1  0  0  0
  7 39  1  0  0  0
  8  9  1  0  0  0
  8 27  1  0  0  0
  9 10  1  0  0  0
 10 11  1  0  0  0
 10 12  1  0  0  0
 12 13  1  0  0  0
 13 14  1  0  0  0
 13 26  1  0  0  0
 14 15  1  0  0  0
 15 16  1  0  0  0
 16 17  1  0  0  0
 17 18  1  0  0  0
 18 19  1  0  0  0
 18 25  1  0  0  0
 19 20  1  0  0  0
 20 21  1  0  0  0
 20 24  1  0  0  0
 21 22  1  0  0  0
 21 23  1  0  0  0
 23 51  1  0  0  0
 23 52  1  0  0  0
 24 53  1  0  0  0
 25 54  1  0  0  0
 26 55  1  0  0  0
 27 28  1  0  0  0
 28 29  2  0  0  0
 28 30  1  0  0  0
 30 31  1  0  0  0
 31 32  1  0  0  0
 31 36  1  0  0  0
 32 33  1  0  0  0
 33 34  2  0  0  0
 33 35  1  0  0  0
 35 56  1  0  0  0
 36 37  2  0  0  0
 36 38  1  0  0  0
 38 57  1  0  0  0
 39 40  1  0  0  0
 40 41  2  0  0  0
 40 42  1  0  0  0
 42 43  1  0  0  0
 43 44  1  0  0  0
 43 48  1  0  0  0
 44 45  1  0  0  0
 45 46  2  0  0  0
 45 47  1  0  0  0
 47 58  1  0  0  0
 48 49  2  0  0  0
 48 50  1  0  0  0
 50 59  1  0  0  0
M  END
>  <AUTHOR>
    GENERATED BY OPEN BABEL 2.4.1

>  <CHROM.1>
-50.01725345,-105.20259969,-11.07361266,4.98151763,131.66637715,88.03979913
-144.76856826,25.43524982,38.29820366,-80.10344426,110.17129089,171.12730846
-121.55623101,156.12499527,49.85434926,164.52388493,53.92868845,47.00503548
-57.97217608,177.99697348,-167.41762788,-170.74964925,-66.62318300,37.70601569
-144.39496463,-57.25596163,-80.71355342,-80.76720627,95.07264469,18.52423028
-3.85138461,-28.30661833,-73.26053283,-144.75345567,42.55087457,155.11605506
-35.04514399,168.37449043,-174.68874944,-1.80437643,-2.42424847,-7.51155013
0.04277768,-0.87538320,-1.44063333

>  <COMPND>
    UNNAMED

>  <MASTER>
        0    0    0    0    0    0    0    0  109    0  109    0

>  <Name>
FB1.pdb

>  <RI>
0

>  <Rbt.Current_Directory>
/cluster/tossine/FB1_39T3/p3/1_clust02

>  <Rbt.Executable>
rbdock/0.1.0

>  <Rbt.Library>
librxdock.so/0.1.0

>  <Rbt.Parameter_File>
/cluster/rxdock/data/scripts/dock.prm

>  <Rbt.Receptor>
rx_1.prm

>  <SCORE>
68.9871

>  <SCORE.INTER>
22.4798

>  <SCORE.INTER.CONST>
1

>  <SCORE.INTER.POLAR>
-0.923318

>  <SCORE.INTER.REPUL>
1.34257

>  <SCORE.INTER.ROT>
32

>  <SCORE.INTER.VDW>
-18.4937

>  <SCORE.INTER.norm>
0.449597

>  <SCORE.INTRA>
45.6586

>  <SCORE.INTRA.DIHEDRAL>
43.1818

>  <SCORE.INTRA.DIHEDRAL.0>
47.3121

>  <SCORE.INTRA.POLAR>
1.47808

>  <SCORE.INTRA.POLAR.0>
-1.47808

>  <SCORE.INTRA.REPUL>
0.0315634

>  <SCORE.INTRA.REPUL.0>
0

>  <SCORE.INTRA.VDW>
18.8845

>  <SCORE.INTRA.VDW.0>
-2.78316

>  <SCORE.INTRA.norm>
0.913173

>  <SCORE.RESTR>
0.84862

>  <SCORE.RESTR.CAVITY>
0.84862

>  <SCORE.RESTR.norm>
0.0169724

>  <SCORE.SYSTEM>
0

>  <SCORE.SYSTEM.CONST>
0

>  <SCORE.SYSTEM.DIHEDRAL>
0

>  <SCORE.SYSTEM.norm>
0

>  <SCORE.heavy>
50

>  <SCORE.norm>
1.37974

$$$$
