FB1.pdb
  RxDock  10072009183D
librxdock.so/0.1.0
 59 58  0  0  0  0  0  0  0  0999 V2000
   -4.2391    0.2816  -11.6861 C   0  0  0  0  0  0
   -3.4283   -0.7352  -10.8860 C   0  0  0  0  0  0
   -1.9857   -0.2567  -10.6532 C   0  0  0  0  0  0
   -1.1870   -1.1557   -9.6766 C   0  0  0  0  0  0
    0.2482   -0.6328   -9.3198 C   0  0  0  0  0  0
    1.0416   -0.4565  -10.6351 C   0  0  0  0  0  0
    0.2410    0.7115   -8.4768 C   0  0  0  0  0  0
    0.1111    0.5701   -6.8864 C   0  0  0  0  0  0
   -0.7948   -0.4981   -6.1337 C   0  0  0  0  0  0
   -0.4969   -2.0714   -6.5304 C   0  0  0  0  0  0
    0.9525   -2.1874   -6.9992 C   0  0  0  0  0  0
   -0.7777   -3.1496   -5.3887 C   0  0  0  0  0  0
   -2.2495   -3.5038   -4.8170 C   0  0  0  0  0  0
   -2.6027   -3.4141   -3.2927 C   0  0  0  0  0  0
   -3.4693   -4.5887   -2.6457 C   0  0  0  0  0  0
   -3.9217   -4.6297   -1.1331 C   0  0  0  0  0  0
   -2.9719   -5.2373   -0.0671 C   0  0  0  0  0  0
   -3.3108   -6.6956    0.4306 C   0  0  0  0  0  0
   -4.2311   -6.7995    1.6532 C   0  0  0  0  0  0
   -3.7975   -7.7242    2.8259 C   0  0  0  0  0  0
   -3.8636   -9.2731    2.6785 C   0  0  0  0  0  0
   -4.0243  -10.0700    3.9656 C   0  0  0  0  0  0
   -4.8829   -9.6635    1.6859 N   0  0  0  0  0  0
   -2.3926   -7.4260    3.0291 O   0  0  0  0  0  0
   -3.9169   -7.4035   -0.6563 O   0  0  0  0  0  0
   -3.1312   -2.5693   -5.4620 O   0  0  0  0  0  0
    1.4535    0.3171   -6.3900 O   0  0  0  0  0  0
    1.6221    0.3129   -5.0421 C   0  0  0  0  0  0
    0.7571    0.5025   -4.2083 O   0  0  0  0  0  0
    3.0455   -0.0679   -4.7417 C   0  0  0  0  0  0
    3.8195    1.0541   -4.0313 C   0  0  0  0  0  0
    5.3116    1.0568   -4.3875 C   0  0  0  0  0  0
    6.0948    1.9433   -3.4473 C   0  0  0  0  0  0
    6.9324    1.5215   -2.6572 O   0  0  0  0  0  0
    5.7878    3.2441   -3.5592 O   0  0  0  0  0  0
    3.1687    2.3681   -4.4850 C   0  0  0  0  0  0
    2.7194    2.5367   -5.6085 O   0  0  0  0  0  0
    3.1774    3.3378   -3.5601 O   0  0  0  0  0  0
    1.3692    1.5928   -8.8647 O   0  0  0  0  0  0
    1.0894    2.7456   -9.5793 C   0  0  0  0  0  0
    0.0750    2.9264  -10.2401 O   0  0  0  0  0  0
    2.2027    3.7942   -9.4549 C   0  0  0  0  0  0
    1.7685    5.2743   -9.6902 C   0  0  0  0  0  0
    0.6765    5.8615   -8.7775 C   0  0  0  0  0  0
   -0.5852    6.2023   -9.5168 C   0  0  0  0  0  0
   -1.3383    7.1296   -9.2532 O   0  0  0  0  0  0
   -0.8146    5.3757  -10.5485 O   0  0  0  0  0  0
    2.9250    6.2813   -9.7184 C   0  0  0  0  0  0
    4.0781    5.9689   -9.4958 O   0  0  0  0  0  0
    2.5971    7.5292  -10.1139 O   0  0  0  0  0  0
   -5.5726   -8.9177    1.6044 H   0  0  0  0  0  0
   -5.4032  -10.4649    2.0499 H   0  0  0  0  0  0
   -2.1083   -8.0457    3.7337 H   0  0  0  0  0  0
   -3.2644   -7.4700   -1.3776 H   0  0  0  0  0  0
   -3.2694   -1.8203   -4.8583 H   0  0  0  0  0  0
    6.1518    3.8198   -2.8596 H   0  0  0  0  0  0
    2.9965    4.2438   -3.9141 H   0  0  0  0  0  0
   -1.5924    5.7323  -11.0271 H   0  0  0  0  0  0
    3.3443    8.0734  -10.4483 H   0  0  0  0  0  0
  1  2  1  0  0  0
  2  3  1  0  0  0
  3  4  1  0  0  0
  4  5  1  0  0  0
  5  6  1  0  0  0
  5  7  1  0  0  0
  7  8  1  0  0  0
  7 39  1  0  0  0
  8  9  1  0  0  0
  8 27  1  0  0  0
  9 10  1  0  0  0
 10 11  1  0  0  0
 10 12  1  0  0  0
 12 13  1  0  0  0
 13 14  1  0  0  0
 13 26  1  0  0  0
 14 15  1  0  0  0
 15 16  1  0  0  0
 16 17  1  0  0  0
 17 18  1  0  0  0
 18 19  1  0  0  0
 18 25  1  0  0  0
 19 20  1  0  0  0
 20 21  1  0  0  0
 20 24  1  0  0  0
 21 22  1  0  0  0
 21 23  1  0  0  0
 23 51  1  0  0  0
 23 52  1  0  0  0
 24 53  1  0  0  0
 25 54  1  0  0  0
 26 55  1  0  0  0
 27 28  1  0  0  0
 28 29  2  0  0  0
 28 30  1  0  0  0
 30 31  1  0  0  0
 31 32  1  0  0  0
 31 36  1  0  0  0
 32 33  1  0  0  0
 33 34  2  0  0  0
 33 35  1  0  0  0
 35 56  1  0  0  0
 36 37  2  0  0  0
 36 38  1  0  0  0
 38 57  1  0  0  0
 39 40  1  0  0  0
 40 41  2  0  0  0
 40 42  1  0  0  0
 42 43  1  0  0  0
 43 44  1  0  0  0
 43 48  1  0  0  0
 44 45  1  0  0  0
 45 46  2  0  0  0
 45 47  1  0  0  0
 47 58  1  0  0  0
 48 49  2  0  0  0
 48 50  1  0  0  0
 50 59  1  0  0  0
M  END
>  <AUTHOR>
    GENERATED BY OPEN BABEL 2.4.1

>  <CHROM.1>
171.67336690,-175.06181010,-56.88359122,85.89399167,-37.84271136,108.50077215
56.09251662,172.63347480,26.37569612,67.22709004,-124.55494055,-137.00417939
-96.28336433,-179.07337232,-86.57182652,-102.40958283,-90.63020198,-130.97196838
62.99272182,-72.85459007,-154.01066594,-176.87986712,-23.70880068,-0.10207655
116.97599633,-148.43514081,-166.76675696,-35.04400437,113.88888099,169.24867508
163.83263487,-21.67954604,-155.56503026,58.97522930,-114.71921738,-4.24487681
-146.79687561,-173.71147670,-158.45284006,-0.02512767,-0.37912491,-5.42899553
1.16228817,-0.61702150,-0.95399733

>  <COMPND>
    UNNAMED

>  <MASTER>
        0    0    0    0    0    0    0    0  109    0  109    0

>  <Name>
FB1.pdb

>  <RI>
0

>  <Rbt.Current_Directory>
/cluster/tossine/FB1_39T3/p3/1_clust02

>  <Rbt.Executable>
rbdock/0.1.0

>  <Rbt.Library>
librxdock.so/0.1.0

>  <Rbt.Parameter_File>
/cluster/rxdock/data/scripts/dock.prm

>  <Rbt.Receptor>
rx_3.prm

>  <SCORE>
110.161

>  <SCORE.INTER>
74.7273

>  <SCORE.INTER.CONST>
1

>  <SCORE.INTER.POLAR>
-2.34833

>  <SCORE.INTER.REPUL>
0.865778

>  <SCORE.INTER.ROT>
32

>  <SCORE.INTER.VDW>
40.9827

>  <SCORE.INTER.norm>
1.49455

>  <SCORE.INTRA>
32.0121

>  <SCORE.INTRA.DIHEDRAL>
30.9582

>  <SCORE.INTRA.DIHEDRAL.0>
47.3121

>  <SCORE.INTRA.POLAR>
1.47808

>  <SCORE.INTRA.POLAR.0>
-1.47808

>  <SCORE.INTRA.REPUL>
0.00916882

>  <SCORE.INTRA.REPUL.0>
0

>  <SCORE.INTRA.VDW>
11.4617

>  <SCORE.INTRA.VDW.0>
-2.78316

>  <SCORE.INTRA.norm>
0.640242

>  <SCORE.RESTR>
3.42157

>  <SCORE.RESTR.CAVITY>
3.42157

>  <SCORE.RESTR.norm>
0.0684315

>  <SCORE.SYSTEM>
0

>  <SCORE.SYSTEM.CONST>
0

>  <SCORE.SYSTEM.DIHEDRAL>
0

>  <SCORE.SYSTEM.norm>
0

>  <SCORE.heavy>
50

>  <SCORE.norm>
2.20322

$$$$
