FB1.pdb
  RxDock  10072007173D
librxdock.so/0.1.0
 59 58  0  0  0  0  0  0  0  0999 V2000
   -6.4503   -9.4514   -4.6777 C   0  0  0  0  0  0
   -5.2113  -10.1911   -5.1765 C   0  0  0  0  0  0
   -3.9632   -9.2934   -5.1506 C   0  0  0  0  0  0
   -4.0301   -8.1137   -6.1524 C   0  0  0  0  0  0
   -3.0426   -6.9329   -5.8510 C   0  0  0  0  0  0
   -1.6002   -7.4302   -6.1020 C   0  0  0  0  0  0
   -3.3459   -5.6230   -6.6936 C   0  0  0  0  0  0
   -3.0082   -4.2193   -5.9995 C   0  0  0  0  0  0
   -1.6476   -3.8710   -5.2541 C   0  0  0  0  0  0
   -1.6717   -2.4796   -4.3682 C   0  0  0  0  0  0
   -2.2969   -2.7818   -3.0074 C   0  0  0  0  0  0
   -0.2665   -1.7531   -4.1618 C   0  0  0  0  0  0
    0.4224   -0.7814   -5.2572 C   0  0  0  0  0  0
    0.3310    0.7807   -5.1702 C   0  0  0  0  0  0
    0.5750    1.6288   -6.5007 C   0  0  0  0  0  0
    1.9611    1.7246   -7.2519 C   0  0  0  0  0  0
    2.3760    3.0602   -7.9237 C   0  0  0  0  0  0
    1.4239    3.6052   -9.0576 C   0  0  0  0  0  0
    1.5187    5.1056   -9.3613 C   0  0  0  0  0  0
    0.2334    5.8461   -9.8282 C   0  0  0  0  0  0
    0.3343    7.1607  -10.6570 C   0  0  0  0  0  0
   -0.8790    8.0794  -10.6207 C   0  0  0  0  0  0
    1.5659    7.9003  -10.3215 N   0  0  0  0  0  0
   -0.4379    4.9023  -10.7014 O   0  0  0  0  0  0
    1.7069    2.8793  -10.2587 O   0  0  0  0  0  0
    1.8268   -1.0798   -5.1844 O   0  0  0  0  0  0
   -3.1141   -3.2138   -7.0436 O   0  0  0  0  0  0
   -2.0575   -3.0876   -7.8880 C   0  0  0  0  0  0
   -1.0817   -3.8123   -7.9325 O   0  0  0  0  0  0
   -2.3390   -1.9553   -8.8367 C   0  0  0  0  0  0
   -1.9214   -2.2772  -10.2805 C   0  0  0  0  0  0
   -2.4148   -1.2271  -11.2840 C   0  0  0  0  0  0
   -3.8638   -1.4573  -11.6458 C   0  0  0  0  0  0
   -4.8031   -0.9673  -11.0283 O   0  0  0  0  0  0
   -4.0281   -2.2518  -12.7138 O   0  0  0  0  0  0
   -0.3870   -2.3196  -10.2763 C   0  0  0  0  0  0
    0.3080   -1.3156  -10.3132 O   0  0  0  0  0  0
    0.1321   -3.5551  -10.2788 O   0  0  0  0  0  0
   -2.7720   -5.7190   -8.0579 O   0  0  0  0  0  0
   -3.5891   -5.4312   -9.1384 C   0  0  0  0  0  0
   -3.2293   -4.8321  -10.1434 O   0  0  0  0  0  0
   -5.0195   -5.9509   -8.9434 C   0  0  0  0  0  0
   -5.5229   -6.9672  -10.0150 C   0  0  0  0  0  0
   -5.7929   -6.4440  -11.4376 C   0  0  0  0  0  0
   -5.9053   -7.5424  -12.4551 C   0  0  0  0  0  0
   -4.9830   -8.0000  -13.1159 O   0  0  0  0  0  0
   -7.1573   -8.0115  -12.5677 O   0  0  0  0  0  0
   -4.6609   -8.2283  -10.1523 C   0  0  0  0  0  0
   -5.0091   -9.3148   -9.7340 O   0  0  0  0  0  0
   -3.5264   -8.0796  -10.8678 O   0  0  0  0  0  0
    2.3655    7.4226  -10.7349 H   0  0  0  0  0  0
    1.7173    7.8418   -9.3119 H   0  0  0  0  0  0
   -1.2763    5.3472  -10.9475 H   0  0  0  0  0  0
    2.5861    3.1526  -10.5793 H   0  0  0  0  0  0
    1.9436   -2.0254   -5.3757 H   0  0  0  0  0  0
   -3.2052   -2.6164  -13.0923 H   0  0  0  0  0  0
    1.1194   -3.5849  -10.3340 H   0  0  0  0  0  0
   -7.1418   -8.6867  -13.2785 H   0  0  0  0  0  0
   -3.0659   -8.9156  -11.1030 H   0  0  0  0  0  0
  1  2  1  0  0  0
  2  3  1  0  0  0
  3  4  1  0  0  0
  4  5  1  0  0  0
  5  6  1  0  0  0
  5  7  1  0  0  0
  7  8  1  0  0  0
  7 39  1  0  0  0
  8  9  1  0  0  0
  8 27  1  0  0  0
  9 10  1  0  0  0
 10 11  1  0  0  0
 10 12  1  0  0  0
 12 13  1  0  0  0
 13 14  1  0  0  0
 13 26  1  0  0  0
 14 15  1  0  0  0
 15 16  1  0  0  0
 16 17  1  0  0  0
 17 18  1  0  0  0
 18 19  1  0  0  0
 18 25  1  0  0  0
 19 20  1  0  0  0
 20 21  1  0  0  0
 20 24  1  0  0  0
 21 22  1  0  0  0
 21 23  1  0  0  0
 23 51  1  0  0  0
 23 52  1  0  0  0
 24 53  1  0  0  0
 25 54  1  0  0  0
 26 55  1  0  0  0
 27 28  1  0  0  0
 28 29  2  0  0  0
 28 30  1  0  0  0
 30 31  1  0  0  0
 31 32  1  0  0  0
 31 36  1  0  0  0
 32 33  1  0  0  0
 33 34  2  0  0  0
 33 35  1  0  0  0
 35 56  1  0  0  0
 36 37  2  0  0  0
 36 38  1  0  0  0
 38 57  1  0  0  0
 39 40  1  0  0  0
 40 41  2  0  0  0
 40 42  1  0  0  0
 42 43  1  0  0  0
 43 44  1  0  0  0
 43 48  1  0  0  0
 44 45  1  0  0  0
 45 46  2  0  0  0
 45 47  1  0  0  0
 47 58  1  0  0  0
 48 49  2  0  0  0
 48 50  1  0  0  0
 50 59  1  0  0  0
M  END
>  <AUTHOR>
    GENERATED BY OPEN BABEL 2.4.1

>  <CHROM.1>
-66.45184099,160.87471771,68.70262801,148.21322384,47.52707489,129.96658016
-168.06842640,-79.83681437,82.59863445,81.44490692,98.98161704,-159.01078523
58.55773533,-67.02647731,-143.96851968,-60.16542181,158.53318495,-147.94432001
-70.11696648,-156.27707156,-157.54361971,176.37613017,73.84373651,7.06769921
-138.32461786,170.51493496,-80.49955344,-80.04659635,89.33832906,3.03588751
176.31348378,141.55457278,-120.72196425,-69.92581512,164.35196049,106.15958478
-90.91330848,177.28398691,-168.63963708,-2.10775775,-2.65642191,-8.58940978
-2.46862302,-1.02297426,-0.87245126

>  <COMPND>
    UNNAMED

>  <MASTER>
        0    0    0    0    0    0    0    0  109    0  109    0

>  <Name>
FB1.pdb

>  <RI>
0

>  <Rbt.Current_Directory>
/cluster/tossine/FB1_39T3/p3/1_clust02

>  <Rbt.Executable>
rbdock/0.1.0

>  <Rbt.Library>
librxdock.so/0.1.0

>  <Rbt.Parameter_File>
/cluster/rxdock/data/scripts/dock.prm

>  <Rbt.Receptor>
rx_0.prm

>  <SCORE>
22.0306

>  <SCORE.INTER>
3.94437

>  <SCORE.INTER.CONST>
1

>  <SCORE.INTER.POLAR>
-1.81767

>  <SCORE.INTER.REPUL>
0.422909

>  <SCORE.INTER.ROT>
32

>  <SCORE.INTER.VDW>
-29.3901

>  <SCORE.INTER.norm>
0.0788875

>  <SCORE.INTRA>
13.685

>  <SCORE.INTRA.DIHEDRAL>
17.7803

>  <SCORE.INTRA.DIHEDRAL.0>
47.3121

>  <SCORE.INTRA.POLAR>
1.47808

>  <SCORE.INTRA.POLAR.0>
-1.47808

>  <SCORE.INTRA.REPUL>
0.0282124

>  <SCORE.INTRA.REPUL.0>
0

>  <SCORE.INTRA.VDW>
-0.371647

>  <SCORE.INTRA.VDW.0>
-2.78316

>  <SCORE.INTRA.norm>
0.2737

>  <SCORE.RESTR>
4.40124

>  <SCORE.RESTR.CAVITY>
4.40124

>  <SCORE.RESTR.norm>
0.0880248

>  <SCORE.SYSTEM>
0

>  <SCORE.SYSTEM.CONST>
0

>  <SCORE.SYSTEM.DIHEDRAL>
0

>  <SCORE.SYSTEM.norm>
0

>  <SCORE.heavy>
50

>  <SCORE.norm>
0.440613

$$$$
