FB1.pdb
  RxDock  09132013033D
librxdock.so/0.1.0
 59 58  0  0  0  0  0  0  0  0999 V2000
   -4.7750    1.7519  -13.0861 C   0  0  0  0  0  0
   -3.5801    1.3560  -12.2219 C   0  0  0  0  0  0
   -4.0192    0.6133  -10.9491 C   0  0  0  0  0  0
   -4.6776   -0.7602  -11.2317 C   0  0  0  0  0  0
   -3.6719   -1.9303  -11.5144 C   0  0  0  0  0  0
   -3.0285   -1.6934  -12.9003 C   0  0  0  0  0  0
   -2.5607   -2.0949  -10.3936 C   0  0  0  0  0  0
   -1.1970   -1.2798  -10.5985 C   0  0  0  0  0  0
   -1.0183    0.2811  -10.3536 C   0  0  0  0  0  0
    0.4746    0.7393   -9.8220 C   0  0  0  0  0  0
    1.3655    0.9929  -11.0370 C   0  0  0  0  0  0
    0.5178    2.0061   -8.8533 C   0  0  0  0  0  0
    0.1914    3.5197   -9.3235 C   0  0  0  0  0  0
    1.0696    4.7425   -8.8882 C   0  0  0  0  0  0
    2.5995    4.4810   -8.5136 C   0  0  0  0  0  0
    3.5095    5.5051   -7.7277 C   0  0  0  0  0  0
    4.6277    4.9731   -6.7927 C   0  0  0  0  0  0
    5.6380    6.0421   -6.2219 C   0  0  0  0  0  0
    6.8128    6.4207   -7.1323 C   0  0  0  0  0  0
    7.6907    7.6410   -6.7342 C   0  0  0  0  0  0
    8.9629    8.0025   -7.5565 C   0  0  0  0  0  0
    9.6547    9.3094   -7.1948 C   0  0  0  0  0  0
    9.9221    6.8816   -7.5605 N   0  0  0  0  0  0
    6.8133    8.7872   -6.8768 O   0  0  0  0  0  0
    4.8986    7.2294   -5.9160 O   0  0  0  0  0  0
    0.2774    3.4877  -10.7581 O   0  0  0  0  0  0
   -0.2188   -1.8964   -9.7180 O   0  0  0  0  0  0
    0.6963   -2.7195  -10.2928 C   0  0  0  0  0  0
    0.4589   -3.6462  -11.0440 O   0  0  0  0  0  0
    2.0711   -2.2322   -9.9268 C   0  0  0  0  0  0
    2.0615   -1.3030   -8.7025 C   0  0  0  0  0  0
    1.6891   -2.0380   -7.4085 C   0  0  0  0  0  0
    1.4467   -1.0641   -6.2789 C   0  0  0  0  0  0
    2.2995   -0.7577   -5.4527 O   0  0  0  0  0  0
    0.2035   -0.5610   -6.2647 O   0  0  0  0  0  0
    3.4831   -0.7346   -8.5933 C   0  0  0  0  0  0
    3.7193    0.4618   -8.5204 O   0  0  0  0  0  0
    4.4529   -1.6587   -8.6340 O   0  0  0  0  0  0
   -3.1311   -1.8897   -9.0399 O   0  0  0  0  0  0
   -2.4378   -2.3891   -7.9500 C   0  0  0  0  0  0
   -1.5818   -3.2620   -8.0096 O   0  0  0  0  0  0
   -2.8601   -1.7225   -6.6341 C   0  0  0  0  0  0
   -2.2469   -2.3355   -5.3369 C   0  0  0  0  0  0
   -2.3254   -1.5100   -4.0397 C   0  0  0  0  0  0
   -1.1214   -1.6844   -3.1597 C   0  0  0  0  0  0
    0.0405   -1.7256   -3.5401 O   0  0  0  0  0  0
   -1.4443   -1.7766   -1.8606 O   0  0  0  0  0  0
   -2.7403   -3.7491   -5.0047 C   0  0  0  0  0  0
   -3.2077   -4.4985   -5.8394 O   0  0  0  0  0  0
   -2.5241   -4.1551   -3.7360 O   0  0  0  0  0  0
   10.0165    6.5194   -6.6127 H   0  0  0  0  0  0
   10.8481    7.2450   -7.7970 H   0  0  0  0  0  0
    6.5749    8.7986   -7.8278 H   0  0  0  0  0  0
    5.5234    7.9772   -5.8849 H   0  0  0  0  0  0
   -0.5323    3.0720  -11.0987 H   0  0  0  0  0  0
   -0.3928   -0.9042   -6.9576 H   0  0  0  0  0  0
    5.2816   -1.4047   -8.1570 H   0  0  0  0  0  0
   -0.6522   -2.1226   -1.3977 H   0  0  0  0  0  0
   -3.0405   -4.9423   -3.4534 H   0  0  0  0  0  0
  1  2  1  0  0  0
  2  3  1  0  0  0
  3  4  1  0  0  0
  4  5  1  0  0  0
  5  6  1  0  0  0
  5  7  1  0  0  0
  7  8  1  0  0  0
  7 39  1  0  0  0
  8  9  1  0  0  0
  8 27  1  0  0  0
  9 10  1  0  0  0
 10 11  1  0  0  0
 10 12  1  0  0  0
 12 13  1  0  0  0
 13 14  1  0  0  0
 13 26  1  0  0  0
 14 15  1  0  0  0
 15 16  1  0  0  0
 16 17  1  0  0  0
 17 18  1  0  0  0
 18 19  1  0  0  0
 18 25  1  0  0  0
 19 20  1  0  0  0
 20 21  1  0  0  0
 20 24  1  0  0  0
 21 22  1  0  0  0
 21 23  1  0  0  0
 23 51  1  0  0  0
 23 52  1  0  0  0
 24 53  1  0  0  0
 25 54  1  0  0  0
 26 55  1  0  0  0
 27 28  1  0  0  0
 28 29  2  0  0  0
 28 30  1  0  0  0
 30 31  1  0  0  0
 31 32  1  0  0  0
 31 36  1  0  0  0
 32 33  1  0  0  0
 33 34  2  0  0  0
 33 35  1  0  0  0
 35 56  1  0  0  0
 36 37  2  0  0  0
 36 38  1  0  0  0
 38 57  1  0  0  0
 39 40  1  0  0  0
 40 41  2  0  0  0
 40 42  1  0  0  0
 42 43  1  0  0  0
 43 44  1  0  0  0
 43 48  1  0  0  0
 44 45  1  0  0  0
 45 46  2  0  0  0
 45 47  1  0  0  0
 47 58  1  0  0  0
 48 49  2  0  0  0
 48 50  1  0  0  0
 50 59  1  0  0  0
M  END
>  <AUTHOR>
    GENERATED BY OPEN BABEL 2.4.1

>  <CHROM.1>
65.47863651,80.30370262,-70.90406099,-90.59751120,76.10840024,160.26963233
147.76854522,102.99335358,88.08784147,-69.22655986,-135.99930982,25.82251943
76.81114784,-164.15638170,148.11711180,170.63739299,-83.67164541,169.34988703
-159.28495773,175.07688368,172.62959037,-61.95949387,-45.86695998,-51.12247931
18.79297935,68.00978404,-169.81223245,127.31527263,-95.92442899,1.99584131
-152.32455413,-19.27909395,173.37015179,164.30873530,-144.85871809,22.40823551
41.91785575,165.19140162,164.28093765,0.90287336,0.78430158,-8.06885735,2.84392428
0.73514562,2.10787735

>  <COMPND>
    UNNAMED

>  <MASTER>
        0    0    0    0    0    0    0    0  109    0  109    0

>  <Name>
FB1.pdb

>  <RI>
0

>  <Rbt.Current_Directory>
/home/fc/tossine/FB1_39T3/p3/1_clust02

>  <Rbt.Executable>
rbdock/0.1.0

>  <Rbt.Library>
librxdock.so/0.1.0

>  <Rbt.Parameter_File>
/cluster/rxdock/data/scripts/dock.prm

>  <Rbt.Receptor>
rx_2.prm

>  <SCORE>
41.9117

>  <SCORE.INTER>
12.2191

>  <SCORE.INTER.CONST>
1

>  <SCORE.INTER.POLAR>
-2.0874

>  <SCORE.INTER.REPUL>
1.3347

>  <SCORE.INTER.ROT>
32

>  <SCORE.INTER.VDW>
-24.7573

>  <SCORE.INTER.norm>
0.244381

>  <SCORE.INTRA>
23.7996

>  <SCORE.INTRA.DIHEDRAL>
35.4684

>  <SCORE.INTRA.DIHEDRAL.0>
47.3121

>  <SCORE.INTRA.POLAR>
0.969387

>  <SCORE.INTRA.POLAR.0>
-1.47808

>  <SCORE.INTRA.REPUL>
0

>  <SCORE.INTRA.REPUL.0>
0

>  <SCORE.INTRA.VDW>
2.76947

>  <SCORE.INTRA.VDW.0>
-2.78316

>  <SCORE.INTRA.norm>
0.475992

>  <SCORE.RESTR>
5.89297

>  <SCORE.RESTR.CAVITY>
5.89297

>  <SCORE.RESTR.norm>
0.117859

>  <SCORE.SYSTEM>
0

>  <SCORE.SYSTEM.CONST>
0

>  <SCORE.SYSTEM.DIHEDRAL>
0

>  <SCORE.SYSTEM.norm>
0

>  <SCORE.heavy>
50

>  <SCORE.norm>
0.838233

$$$$
