FB1.pdb
  RxDock  10072008013D
librxdock.so/0.1.0
 59 58  0  0  0  0  0  0  0  0999 V2000
   -3.2173   -9.1858   -5.5747 C   0  0  0  0  0  0
   -3.7631   -7.8364   -6.0357 C   0  0  0  0  0  0
   -2.6751   -6.7498   -6.0291 C   0  0  0  0  0  0
   -1.8945   -6.6495   -7.3634 C   0  0  0  0  0  0
   -1.3864   -5.2104   -7.7259 C   0  0  0  0  0  0
   -0.6567   -5.2818   -9.0872 C   0  0  0  0  0  0
   -2.5395   -4.1208   -7.7567 C   0  0  0  0  0  0
   -2.6436   -3.1385   -6.4955 C   0  0  0  0  0  0
   -2.9946   -3.5888   -5.0115 C   0  0  0  0  0  0
   -2.8731   -2.4013   -3.8730 C   0  0  0  0  0  0
   -4.1041   -1.5023   -3.9765 C   0  0  0  0  0  0
   -2.6922   -2.8889   -2.3649 C   0  0  0  0  0  0
   -3.4623   -4.1592   -1.7232 C   0  0  0  0  0  0
   -3.0064   -5.6362   -1.9813 C   0  0  0  0  0  0
   -3.9725   -6.8193   -1.5164 C   0  0  0  0  0  0
   -3.6883   -7.7668   -0.2851 C   0  0  0  0  0  0
   -3.4867   -7.1496    1.1241 C   0  0  0  0  0  0
   -3.7710   -8.0943    2.3553 C   0  0  0  0  0  0
   -4.6554   -7.5147    3.4663 C   0  0  0  0  0  0
   -4.4832   -6.0147    3.8388 C   0  0  0  0  0  0
   -4.9873   -5.4770    5.2107 C   0  0  0  0  0  0
   -4.4252   -6.1554    6.4522 C   0  0  0  0  0  0
   -4.8277   -4.0127    5.2920 N   0  0  0  0  0  0
   -3.0485   -5.8027    3.8566 O   0  0  0  0  0  0
   -4.3852   -9.2898    1.8622 O   0  0  0  0  0  0
   -3.3552   -3.9766   -0.3013 O   0  0  0  0  0  0
   -1.3483   -2.4897   -6.3778 O   0  0  0  0  0  0
   -1.0109   -1.6049   -7.3517 C   0  0  0  0  0  0
   -1.6234   -1.4016   -8.3827 O   0  0  0  0  0  0
    0.1999   -0.8369   -6.8983 C   0  0  0  0  0  0
    0.7024    0.1539   -7.9605 C   0  0  0  0  0  0
    1.5916    1.2535   -7.3659 C   0  0  0  0  0  0
    0.8359    2.5557   -7.2372 C   0  0  0  0  0  0
    0.0643    2.8040   -6.3170 O   0  0  0  0  0  0
    1.0905    3.4216   -8.2293 O   0  0  0  0  0  0
    1.5028   -0.6801   -8.9703 C   0  0  0  0  0  0
    1.0364   -1.0736  -10.0287 O   0  0  0  0  0  0
    2.7458   -0.9857   -8.5733 O   0  0  0  0  0  0
   -2.5394   -3.3771   -9.0399 O   0  0  0  0  0  0
   -3.5824   -3.5908   -9.9257 C   0  0  0  0  0  0
   -4.3911   -4.5058   -9.8414 O   0  0  0  0  0  0
   -3.6217   -2.5423  -11.0452 C   0  0  0  0  0  0
   -4.6429   -1.3792  -10.8483 C   0  0  0  0  0  0
   -4.0917    0.0173  -10.5070 C   0  0  0  0  0  0
   -2.8669    0.3741  -11.2989 C   0  0  0  0  0  0
   -1.7234    0.0243  -11.0408 O   0  0  0  0  0  0
   -3.1512    1.1278  -12.3720 O   0  0  0  0  0  0
   -5.6394   -1.2035  -12.0009 C   0  0  0  0  0  0
   -5.5178   -0.3467  -12.8540 O   0  0  0  0  0  0
   -6.6129   -2.1354  -12.0723 O   0  0  0  0  0  0
   -5.7283   -3.5903    5.5133 H   0  0  0  0  0  0
   -4.5915   -3.6577    4.3627 H   0  0  0  0  0  0
   -2.7323   -6.3197    4.6274 H   0  0  0  0  0  0
   -3.6974   -9.8296    1.4309 H   0  0  0  0  0  0
   -3.5088   -3.0369   -0.1064 H   0  0  0  0  0  0
    1.5888    3.0548   -8.9847 H   0  0  0  0  0  0
    2.9147   -0.8439   -7.6089 H   0  0  0  0  0  0
   -4.0943    0.9673  -12.5866 H   0  0  0  0  0  0
   -6.5710   -2.8393  -11.3874 H   0  0  0  0  0  0
  1  2  1  0  0  0
  2  3  1  0  0  0
  3  4  1  0  0  0
  4  5  1  0  0  0
  5  6  1  0  0  0
  5  7  1  0  0  0
  7  8  1  0  0  0
  7 39  1  0  0  0
  8  9  1  0  0  0
  8 27  1  0  0  0
  9 10  1  0  0  0
 10 11  1  0  0  0
 10 12  1  0  0  0
 12 13  1  0  0  0
 13 14  1  0  0  0
 13 26  1  0  0  0
 14 15  1  0  0  0
 15 16  1  0  0  0
 16 17  1  0  0  0
 17 18  1  0  0  0
 18 19  1  0  0  0
 18 25  1  0  0  0
 19 20  1  0  0  0
 20 21  1  0  0  0
 20 24  1  0  0  0
 21 22  1  0  0  0
 21 23  1  0  0  0
 23 51  1  0  0  0
 23 52  1  0  0  0
 24 53  1  0  0  0
 25 54  1  0  0  0
 26 55  1  0  0  0
 27 28  1  0  0  0
 28 29  2  0  0  0
 28 30  1  0  0  0
 30 31  1  0  0  0
 31 32  1  0  0  0
 31 36  1  0  0  0
 32 33  1  0  0  0
 33 34  2  0  0  0
 33 35  1  0  0  0
 35 56  1  0  0  0
 36 37  2  0  0  0
 36 38  1  0  0  0
 38 57  1  0  0  0
 39 40  1  0  0  0
 40 41  2  0  0  0
 40 42  1  0  0  0
 42 43  1  0  0  0
 43 44  1  0  0  0
 43 48  1  0  0  0
 44 45  1  0  0  0
 45 46  2  0  0  0
 45 47  1  0  0  0
 47 58  1  0  0  0
 48 49  2  0  0  0
 48 50  1  0  0  0
 50 59  1  0  0  0
M  END
>  <AUTHOR>
    GENERATED BY OPEN BABEL 2.4.1

>  <CHROM.1>
89.29883560,148.41244735,-178.99195948,102.62983203,-64.59142179,110.10106118
173.55171386,68.88752898,77.44725946,-39.47127874,78.83559449,-169.55749414
41.91735030,-107.79621144,57.53124353,156.69131172,-131.86601538,-38.16712771
74.78489198,-160.38147733,57.02237840,-68.15071363,124.78667770,-8.01390855
177.49583408,160.21097282,-103.06752078,98.29960944,80.49997278,10.83416944
14.87426247,-12.86201334,-99.11160184,107.93983204,41.68873564,-100.99415254
-81.87126466,-22.48706252,-1.10576918,-2.58971557,-3.24093054,-5.39429691
1.84645150,0.99986053,1.77248971

>  <COMPND>
    UNNAMED

>  <MASTER>
        0    0    0    0    0    0    0    0  109    0  109    0

>  <Name>
FB1.pdb

>  <RI>
0

>  <Rbt.Current_Directory>
/cluster/tossine/FB1_39T3/p3/1_clust02

>  <Rbt.Executable>
rbdock/0.1.0

>  <Rbt.Library>
librxdock.so/0.1.0

>  <Rbt.Parameter_File>
/cluster/rxdock/data/scripts/dock.prm

>  <Rbt.Receptor>
rx_1.prm

>  <SCORE>
82.5641

>  <SCORE.INTER>
62.1195

>  <SCORE.INTER.CONST>
1

>  <SCORE.INTER.POLAR>
-2.35498

>  <SCORE.INTER.REPUL>
0.476646

>  <SCORE.INTER.ROT>
32

>  <SCORE.INTER.VDW>
30.3432

>  <SCORE.INTER.norm>
1.24239

>  <SCORE.INTRA>
20.4203

>  <SCORE.INTRA.DIHEDRAL>
27.4061

>  <SCORE.INTRA.DIHEDRAL.0>
47.3121

>  <SCORE.INTRA.POLAR>
0.725923

>  <SCORE.INTRA.POLAR.0>
-1.47808

>  <SCORE.INTRA.REPUL>
0.00545922

>  <SCORE.INTRA.REPUL.0>
0

>  <SCORE.INTRA.VDW>
4.22179

>  <SCORE.INTRA.VDW.0>
-2.78316

>  <SCORE.INTRA.norm>
0.408405

>  <SCORE.RESTR>
0.0243122

>  <SCORE.RESTR.CAVITY>
0.0243122

>  <SCORE.RESTR.norm>
0.000486244

>  <SCORE.SYSTEM>
0

>  <SCORE.SYSTEM.CONST>
0

>  <SCORE.SYSTEM.DIHEDRAL>
0

>  <SCORE.SYSTEM.norm>
0

>  <SCORE.heavy>
50

>  <SCORE.norm>
1.65128

$$$$
