FB1.pdb
  RxDock  10072007243D
librxdock.so/0.1.0
 59 58  0  0  0  0  0  0  0  0999 V2000
   -1.2668   -1.7159  -10.6063 C   0  0  0  0  0  0
   -0.0014   -1.7955   -9.7556 C   0  0  0  0  0  0
   -0.2203   -2.6359   -8.4867 C   0  0  0  0  0  0
    0.6783   -2.2076   -7.2997 C   0  0  0  0  0  0
    0.0563   -2.4456   -5.8796 C   0  0  0  0  0  0
    1.0636   -1.9456   -4.8184 C   0  0  0  0  0  0
   -1.3605   -1.7581   -5.6855 C   0  0  0  0  0  0
   -2.6012   -2.7253   -5.3831 C   0  0  0  0  0  0
   -3.9754   -2.2721   -4.7240 C   0  0  0  0  0  0
   -4.0185   -2.3449   -3.0765 C   0  0  0  0  0  0
   -4.9191   -1.2218   -2.5647 C   0  0  0  0  0  0
   -4.4852   -3.7340   -2.4461 C   0  0  0  0  0  0
   -3.6847   -4.5144   -1.2761 C   0  0  0  0  0  0
   -4.2080   -5.8513   -0.6478 C   0  0  0  0  0  0
   -3.3925   -6.4863    0.5692 C   0  0  0  0  0  0
   -3.9997   -7.5091    1.6083 C   0  0  0  0  0  0
   -5.1335   -7.0479    2.5619 C   0  0  0  0  0  0
   -4.9380   -7.3641    4.0952 C   0  0  0  0  0  0
   -3.5275   -7.7833    4.5280 C   0  0  0  0  0  0
   -3.3641   -8.5370    5.8784 C   0  0  0  0  0  0
   -4.1709   -8.0940    7.1346 C   0  0  0  0  0  0
   -3.6582   -6.8636    7.8699 C   0  0  0  0  0  0
   -5.6053   -7.9591    6.8173 N   0  0  0  0  0  0
   -3.8122   -9.8884    5.6017 O   0  0  0  0  0  0
   -5.3143   -6.1994    4.8379 O   0  0  0  0  0  0
   -2.4120   -4.8456   -1.8568 O   0  0  0  0  0  0
   -2.9875   -3.3021   -6.6600 O   0  0  0  0  0  0
   -3.3748   -4.6041   -6.6569 C   0  0  0  0  0  0
   -3.0514   -5.4489   -5.8438 O   0  0  0  0  0  0
   -4.3590   -4.8106   -7.7750 C   0  0  0  0  0  0
   -4.1572   -6.1514   -8.4989 C   0  0  0  0  0  0
   -5.4843   -6.8290   -8.8638 C   0  0  0  0  0  0
   -5.5416   -8.2401   -8.3264 C   0  0  0  0  0  0
   -4.6770   -8.7272   -7.6061 O   0  0  0  0  0  0
   -6.6348   -8.9147   -8.7120 O   0  0  0  0  0  0
   -3.3649   -5.8277   -9.7732 C   0  0  0  0  0  0
   -2.1557   -5.9769   -9.8626 O   0  0  0  0  0  0
   -4.1033   -5.3190  -10.7692 O   0  0  0  0  0  0
   -1.2834   -0.6365   -4.7180 O   0  0  0  0  0  0
   -0.6871    0.5453   -5.1253 C   0  0  0  0  0  0
   -0.5031    1.5170   -4.4040 O   0  0  0  0  0  0
   -0.2720    0.5111   -6.6020 C   0  0  0  0  0  0
    0.9356    1.4210   -6.9874 C   0  0  0  0  0  0
    2.3363    1.0093   -6.4986 C   0  0  0  0  0  0
    2.5155    1.1833   -5.0180 C   0  0  0  0  0  0
    2.5903    0.2793   -4.1972 O   0  0  0  0  0  0
    2.6091    2.4732   -4.6605 O   0  0  0  0  0  0
    1.0507    1.7271   -8.4858 C   0  0  0  0  0  0
    0.0905    1.7521   -9.2303 O   0  0  0  0  0  0
    2.2825    2.0756   -8.9131 O   0  0  0  0  0  0
   -6.0797   -7.5102    7.5995 H   0  0  0  0  0  0
   -6.0166   -8.8934    6.7607 H   0  0  0  0  0  0
   -3.8170  -10.3307    6.4767 H   0  0  0  0  0  0
   -5.3466   -6.4383    5.7825 H   0  0  0  0  0  0
   -1.8177   -4.0869   -1.7313 H   0  0  0  0  0  0
   -7.2467   -8.4206   -9.2908 H   0  0  0  0  0  0
   -4.1399   -5.8825  -11.5815 H   0  0  0  0  0  0
    2.1429    2.9909   -5.3504 H   0  0  0  0  0  0
    2.3528    2.2756   -9.8729 H   0  0  0  0  0  0
  1  2  1  0  0  0
  2  3  1  0  0  0
  3  4  1  0  0  0
  4  5  1  0  0  0
  5  6  1  0  0  0
  5  7  1  0  0  0
  7  8  1  0  0  0
  7 39  1  0  0  0
  8  9  1  0  0  0
  8 27  1  0  0  0
  9 10  1  0  0  0
 10 11  1  0  0  0
 10 12  1  0  0  0
 12 13  1  0  0  0
 13 14  1  0  0  0
 13 26  1  0  0  0
 14 15  1  0  0  0
 15 16  1  0  0  0
 16 17  1  0  0  0
 17 18  1  0  0  0
 18 19  1  0  0  0
 18 25  1  0  0  0
 19 20  1  0  0  0
 20 21  1  0  0  0
 20 24  1  0  0  0
 21 22  1  0  0  0
 21 23  1  0  0  0
 23 51  1  0  0  0
 23 52  1  0  0  0
 24 53  1  0  0  0
 25 54  1  0  0  0
 26 55  1  0  0  0
 27 28  1  0  0  0
 28 29  2  0  0  0
 28 30  1  0  0  0
 30 31  1  0  0  0
 31 32  1  0  0  0
 31 36  1  0  0  0
 32 33  1  0  0  0
 33 34  2  0  0  0
 33 35  1  0  0  0
 35 56  1  0  0  0
 36 37  2  0  0  0
 36 38  1  0  0  0
 38 57  1  0  0  0
 39 40  1  0  0  0
 40 41  2  0  0  0
 40 42  1  0  0  0
 42 43  1  0  0  0
 43 44  1  0  0  0
 43 48  1  0  0  0
 44 45  1  0  0  0
 45 46  2  0  0  0
 45 47  1  0  0  0
 47 58  1  0  0  0
 48 49  2  0  0  0
 48 50  1  0  0  0
 50 59  1  0  0  0
M  END
>  <AUTHOR>
    GENERATED BY OPEN BABEL 2.4.1

>  <CHROM.1>
-151.07329334,149.76528094,-179.03500351,118.40539310,160.02117468,74.26233076
-89.33972588,141.88375533,147.35951071,130.55364435,177.65074517,-175.88980177
86.25016547,158.62409057,-65.33524256,-130.08424863,14.07174059,-160.49254495
170.14504089,-41.55065673,-77.79544215,-173.03926714,-169.83691951,-25.02213741
140.52260206,140.32505569,-125.79459929,98.63101975,5.29007281,0.51331105
-116.61966556,-176.21438897,-152.39294880,71.11469620,-70.80701922,28.00810920
108.58867897,25.46417892,-179.71128338,-2.33359715,-3.73391219,-3.92359354
1.07931556,-0.94644283,-1.49910051

>  <COMPND>
    UNNAMED

>  <MASTER>
        0    0    0    0    0    0    0    0  109    0  109    0

>  <Name>
FB1.pdb

>  <RI>
0

>  <Rbt.Current_Directory>
/cluster/tossine/FB1_39T3/p3/1_clust02

>  <Rbt.Executable>
rbdock/0.1.0

>  <Rbt.Library>
librxdock.so/0.1.0

>  <Rbt.Parameter_File>
/cluster/rxdock/data/scripts/dock.prm

>  <Rbt.Receptor>
rx_0.prm

>  <SCORE>
132.356

>  <SCORE.INTER>
95.1829

>  <SCORE.INTER.CONST>
1

>  <SCORE.INTER.POLAR>
-1.47457

>  <SCORE.INTER.REPUL>
1.59923

>  <SCORE.INTER.ROT>
32

>  <SCORE.INTER.VDW>
54.8003

>  <SCORE.INTER.norm>
1.90366

>  <SCORE.INTRA>
34.5247

>  <SCORE.INTRA.DIHEDRAL>
53.2013

>  <SCORE.INTRA.DIHEDRAL.0>
47.3121

>  <SCORE.INTRA.POLAR>
0.714913

>  <SCORE.INTRA.POLAR.0>
-1.47808

>  <SCORE.INTRA.REPUL>
0.00139181

>  <SCORE.INTRA.REPUL.0>
0

>  <SCORE.INTRA.VDW>
5.48644

>  <SCORE.INTRA.VDW.0>
-2.78316

>  <SCORE.INTRA.norm>
0.690495

>  <SCORE.RESTR>
2.64865

>  <SCORE.RESTR.CAVITY>
2.64865

>  <SCORE.RESTR.norm>
0.0529731

>  <SCORE.SYSTEM>
0

>  <SCORE.SYSTEM.CONST>
0

>  <SCORE.SYSTEM.DIHEDRAL>
0

>  <SCORE.SYSTEM.norm>
0

>  <SCORE.heavy>
50

>  <SCORE.norm>
2.64713

$$$$
