FB1.pdb
  RxDock  10072008053D
librxdock.so/0.1.0
 59 58  0  0  0  0  0  0  0  0999 V2000
   -4.2750   -7.8575  -15.4537 C   0  0  0  0  0  0
   -4.0818   -9.0104  -14.4714 C   0  0  0  0  0  0
   -5.1617   -9.0129  -13.3768 C   0  0  0  0  0  0
   -5.1346   -7.7503  -12.4797 C   0  0  0  0  0  0
   -5.6005   -7.9803  -10.9997 C   0  0  0  0  0  0
   -4.7733   -9.1436  -10.4055 C   0  0  0  0  0  0
   -5.4894   -6.6834  -10.0921 C   0  0  0  0  0  0
   -5.9455   -6.8264   -8.5631 C   0  0  0  0  0  0
   -7.3664   -6.4030   -7.9887 C   0  0  0  0  0  0
   -8.6577   -7.1397   -8.7036 C   0  0  0  0  0  0
   -8.5585   -8.6435   -8.4525 C   0  0  0  0  0  0
  -10.0987   -6.6175   -8.2614 C   0  0  0  0  0  0
  -10.7829   -6.9438   -6.8318 C   0  0  0  0  0  0
  -10.0373   -6.7168   -5.4721 C   0  0  0  0  0  0
  -10.6780   -7.3314   -4.1451 C   0  0  0  0  0  0
  -10.2345   -6.9402   -2.6806 C   0  0  0  0  0  0
  -10.1778   -5.4443   -2.2728 C   0  0  0  0  0  0
  -11.5311   -4.7929   -1.7897 C   0  0  0  0  0  0
  -11.5613   -4.2825   -0.3436 C   0  0  0  0  0  0
  -11.4186   -5.3187    0.8071 C   0  0  0  0  0  0
  -11.5695   -4.8770    2.2929 C   0  0  0  0  0  0
  -12.9909   -4.6704    2.7972 C   0  0  0  0  0  0
  -10.8182   -5.7777    3.1878 N   0  0  0  0  0  0
  -12.4953   -6.2649    0.5855 O   0  0  0  0  0  0
  -11.8321   -3.6999   -2.6641 O   0  0  0  0  0  0
  -11.9391   -6.0915   -6.7724 O   0  0  0  0  0  0
   -5.8308   -8.2377   -8.2352 O   0  0  0  0  0  0
   -5.7851   -8.5630   -6.9171 C   0  0  0  0  0  0
   -6.5413   -8.1655   -6.0513 O   0  0  0  0  0  0
   -4.6992   -9.5838   -6.7161 C   0  0  0  0  0  0
   -4.8269  -10.3254   -5.3759 C   0  0  0  0  0  0
   -6.2861  -10.6085   -4.9965 C   0  0  0  0  0  0
   -6.5785  -10.1611   -3.5831 C   0  0  0  0  0  0
   -6.0931  -10.6915   -2.5897 O   0  0  0  0  0  0
   -7.4230   -9.1214   -3.5156 O   0  0  0  0  0  0
   -4.0639  -11.6458   -5.5501 C   0  0  0  0  0  0
   -4.5004  -12.7230   -5.1741 O   0  0  0  0  0  0
   -2.8519  -11.5149   -6.1067 O   0  0  0  0  0  0
   -4.1505   -6.0571  -10.2149 O   0  0  0  0  0  0
   -4.0732   -4.6763  -10.2889 C   0  0  0  0  0  0
   -4.5581   -3.9988  -11.1858 O   0  0  0  0  0  0
   -3.3030   -4.0705   -9.1082 C   0  0  0  0  0  0
   -1.8366   -3.6308   -9.4101 C   0  0  0  0  0  0
   -1.3160   -2.3437   -8.7448 C   0  0  0  0  0  0
   -1.4816   -2.3464   -7.2524 C   0  0  0  0  0  0
   -2.5154   -2.0945   -6.6488 O   0  0  0  0  0  0
   -0.3518   -2.6821   -6.6113 O   0  0  0  0  0  0
   -0.7830   -4.7203   -9.1750 C   0  0  0  0  0  0
    0.2266   -4.5331   -8.5252 O   0  0  0  0  0  0
   -1.0990   -5.9437   -9.6490 O   0  0  0  0  0  0
   -9.8238   -5.5669    3.1157 H   0  0  0  0  0  0
  -10.9105   -6.7349    2.8404 H   0  0  0  0  0  0
  -13.3012   -5.7104    0.5192 H   0  0  0  0  0  0
  -11.0299   -3.1533   -2.7551 H   0  0  0  0  0  0
  -12.4489   -6.3311   -5.9804 H   0  0  0  0  0  0
   -7.5455   -8.6293   -4.3501 H   0  0  0  0  0  0
   -2.3008  -12.3363   -6.0872 H   0  0  0  0  0  0
    0.2150   -3.1451   -7.2638 H   0  0  0  0  0  0
   -2.0289   -6.0502   -9.9492 H   0  0  0  0  0  0
  1  2  1  0  0  0
  2  3  1  0  0  0
  3  4  1  0  0  0
  4  5  1  0  0  0
  5  6  1  0  0  0
  5  7  1  0  0  0
  7  8  1  0  0  0
  7 39  1  0  0  0
  8  9  1  0  0  0
  8 27  1  0  0  0
  9 10  1  0  0  0
 10 11  1  0  0  0
 10 12  1  0  0  0
 12 13  1  0  0  0
 13 14  1  0  0  0
 13 26  1  0  0  0
 14 15  1  0  0  0
 15 16  1  0  0  0
 16 17  1  0  0  0
 17 18  1  0  0  0
 18 19  1  0  0  0
 18 25  1  0  0  0
 19 20  1  0  0  0
 20 21  1  0  0  0
 20 24  1  0  0  0
 21 22  1  0  0  0
 21 23  1  0  0  0
 23 51  1  0  0  0
 23 52  1  0  0  0
 24 53  1  0  0  0
 25 54  1  0  0  0
 26 55  1  0  0  0
 27 28  1  0  0  0
 28 29  2  0  0  0
 28 30  1  0  0  0
 30 31  1  0  0  0
 31 32  1  0  0  0
 31 36  1  0  0  0
 32 33  1  0  0  0
 33 34  2  0  0  0
 33 35  1  0  0  0
 35 56  1  0  0  0
 36 37  2  0  0  0
 36 38  1  0  0  0
 38 57  1  0  0  0
 39 40  1  0  0  0
 40 41  2  0  0  0
 40 42  1  0  0  0
 42 43  1  0  0  0
 43 44  1  0  0  0
 43 48  1  0  0  0
 44 45  1  0  0  0
 45 46  2  0  0  0
 45 47  1  0  0  0
 47 58  1  0  0  0
 48 49  2  0  0  0
 48 50  1  0  0  0
 50 59  1  0  0  0
M  END
>  <AUTHOR>
    GENERATED BY OPEN BABEL 2.4.1

>  <CHROM.1>
-62.88704957,-148.94635495,53.35871928,179.96648534,-97.96146217,138.71924059
57.77633178,161.44708401,62.59031671,-73.65972523,50.70888937,-168.14767784
172.90714736,-166.28696084,51.82897913,84.46325895,117.46652934,-64.70425975
-48.47607255,-174.49712860,78.24195963,-52.80108917,75.55758900,48.67333545
-162.92604568,37.55743755,-129.71913054,-135.39837541,-67.61452050,-16.38265617
170.60633749,-62.51048725,102.38035818,142.20162657,53.79369997,-130.40310092
-80.12031025,-19.54895146,-10.49851001,-6.48561735,-6.81294609,-6.43903648
0.48759850,-0.78748238,-2.54455628

>  <COMPND>
    UNNAMED

>  <MASTER>
        0    0    0    0    0    0    0    0  109    0  109    0

>  <Name>
FB1.pdb

>  <RI>
0

>  <Rbt.Current_Directory>
/cluster/tossine/FB1_39T3/p3/1_clust02

>  <Rbt.Executable>
rbdock/0.1.0

>  <Rbt.Library>
librxdock.so/0.1.0

>  <Rbt.Parameter_File>
/cluster/rxdock/data/scripts/dock.prm

>  <Rbt.Receptor>
rx_1.prm

>  <SCORE>
36.9922

>  <SCORE.INTER>
7.0502

>  <SCORE.INTER.CONST>
1

>  <SCORE.INTER.POLAR>
-0.917681

>  <SCORE.INTER.REPUL>
0.208934

>  <SCORE.INTER.ROT>
32

>  <SCORE.INTER.VDW>
-28.2744

>  <SCORE.INTER.norm>
0.141004

>  <SCORE.INTRA>
26.6575

>  <SCORE.INTRA.DIHEDRAL>
38.8138

>  <SCORE.INTRA.DIHEDRAL.0>
47.3121

>  <SCORE.INTRA.POLAR>
-1.1822

>  <SCORE.INTRA.POLAR.0>
-1.47808

>  <SCORE.INTRA.REPUL>
0

>  <SCORE.INTRA.REPUL.0>
0

>  <SCORE.INTRA.VDW>
11.27

>  <SCORE.INTRA.VDW.0>
-2.78316

>  <SCORE.INTRA.norm>
0.53315

>  <SCORE.RESTR>
3.2845

>  <SCORE.RESTR.CAVITY>
3.2845

>  <SCORE.RESTR.norm>
0.0656899

>  <SCORE.SYSTEM>
0

>  <SCORE.SYSTEM.CONST>
0

>  <SCORE.SYSTEM.DIHEDRAL>
0

>  <SCORE.SYSTEM.norm>
0

>  <SCORE.heavy>
50

>  <SCORE.norm>
0.739844

$$$$
