FB1.pdb
  RxDock  10072009533D
librxdock.so/0.1.0
 59 58  0  0  0  0  0  0  0  0999 V2000
   -3.8225    2.2803  -13.0026 C   0  0  0  0  0  0
   -2.9158    3.2350  -12.2294 C   0  0  0  0  0  0
   -1.5579    3.4206  -12.9266 C   0  0  0  0  0  0
   -0.3564    3.4196  -11.9488 C   0  0  0  0  0  0
    0.2564    2.0058  -11.6553 C   0  0  0  0  0  0
    1.4763    1.8032  -12.5835 C   0  0  0  0  0  0
    0.6586    1.7932  -10.1351 C   0  0  0  0  0  0
    1.1595    3.0841   -9.3296 C   0  0  0  0  0  0
    0.7221    4.5815   -9.6376 C   0  0  0  0  0  0
    1.2691    5.7054   -8.5611 C   0  0  0  0  0  0
    2.7884    5.5807   -8.4594 C   0  0  0  0  0  0
    0.8761    7.2211   -8.8664 C   0  0  0  0  0  0
    0.2930    8.2480   -7.7601 C   0  0  0  0  0  0
   -0.0652    9.7353   -8.1005 C   0  0  0  0  0  0
   -0.7944   10.6133   -6.9840 C   0  0  0  0  0  0
   -2.3376   10.5324   -6.6575 C   0  0  0  0  0  0
   -3.1574    9.3056   -7.1373 C   0  0  0  0  0  0
   -4.2072    8.7160   -6.1178 C   0  0  0  0  0  0
   -4.8528    9.7175   -5.1521 C   0  0  0  0  0  0
   -6.1817    9.3149   -4.4519 C   0  0  0  0  0  0
   -6.4123    7.8508   -3.9738 C   0  0  0  0  0  0
   -6.9809    6.8837   -5.0028 C   0  0  0  0  0  0
   -5.1917    7.3024   -3.3527 N   0  0  0  0  0  0
   -6.2169   10.1148   -3.2424 O   0  0  0  0  0  0
   -5.2439    8.0776   -6.8710 O   0  0  0  0  0  0
   -0.9410    7.6560   -7.3203 O   0  0  0  0  0  0
    0.7728    2.8740   -7.9444 O   0  0  0  0  0  0
    1.5502    2.0392   -7.2067 C   0  0  0  0  0  0
    1.7972    2.1467   -6.0206 O   0  0  0  0  0  0
    1.9786    0.8923   -8.0798 C   0  0  0  0  0  0
    2.6801   -0.2226   -7.2877 C   0  0  0  0  0  0
    1.9685   -0.5437   -5.9671 C   0  0  0  0  0  0
    2.6447    0.1422   -4.8028 C   0  0  0  0  0  0
    3.8307    0.4539   -4.7949 O   0  0  0  0  0  0
    1.8208    0.3818   -3.7719 O   0  0  0  0  0  0
    2.6746   -1.4564   -8.2008 C   0  0  0  0  0  0
    2.7218   -1.3845   -9.4194 O   0  0  0  0  0  0
    2.5635   -2.6239   -7.5523 O   0  0  0  0  0  0
   -0.3979    1.0564   -9.3997 O   0  0  0  0  0  0
   -0.9092   -0.1004   -9.9641 C   0  0  0  0  0  0
   -1.5452   -0.1432  -11.0091 O   0  0  0  0  0  0
   -0.5900   -1.3476   -9.1293 C   0  0  0  0  0  0
   -1.8215   -2.0945   -8.5292 C   0  0  0  0  0  0
   -1.8878   -3.6244   -8.6885 C   0  0  0  0  0  0
   -0.5430   -4.2481   -8.9271 C   0  0  0  0  0  0
    0.5376   -3.7298   -8.6817 O   0  0  0  0  0  0
   -0.6345   -5.4852   -9.4384 O   0  0  0  0  0  0
   -2.1013   -1.7801   -7.0543 C   0  0  0  0  0  0
   -1.4776   -0.9470   -6.4269 O   0  0  0  0  0  0
   -3.1642   -2.4157   -6.5180 O   0  0  0  0  0  0
   -4.3755    7.6622   -3.8456 H   0  0  0  0  0  0
   -5.1705    6.2923   -3.5104 H   0  0  0  0  0  0
   -6.7192   10.9187   -3.4929 H   0  0  0  0  0  0
   -4.8254    7.5007   -7.5363 H   0  0  0  0  0  0
   -0.7648    6.7279   -7.0923 H   0  0  0  0  0  0
    2.2591    0.6532   -2.9427 H   0  0  0  0  0  0
    2.3197   -3.3910   -8.1276 H   0  0  0  0  0  0
   -1.0014   -5.3895  -10.3426 H   0  0  0  0  0  0
   -3.0075   -2.8271   -5.6391 H   0  0  0  0  0  0
  1  2  1  0  0  0
  2  3  1  0  0  0
  3  4  1  0  0  0
  4  5  1  0  0  0
  5  6  1  0  0  0
  5  7  1  0  0  0
  7  8  1  0  0  0
  7 39  1  0  0  0
  8  9  1  0  0  0
  8 27  1  0  0  0
  9 10  1  0  0  0
 10 11  1  0  0  0
 10 12  1  0  0  0
 12 13  1  0  0  0
 13 14  1  0  0  0
 13 26  1  0  0  0
 14 15  1  0  0  0
 15 16  1  0  0  0
 16 17  1  0  0  0
 17 18  1  0  0  0
 18 19  1  0  0  0
 18 25  1  0  0  0
 19 20  1  0  0  0
 20 21  1  0  0  0
 20 24  1  0  0  0
 21 22  1  0  0  0
 21 23  1  0  0  0
 23 51  1  0  0  0
 23 52  1  0  0  0
 24 53  1  0  0  0
 25 54  1  0  0  0
 26 55  1  0  0  0
 27 28  1  0  0  0
 28 29  2  0  0  0
 28 30  1  0  0  0
 30 31  1  0  0  0
 31 32  1  0  0  0
 31 36  1  0  0  0
 32 33  1  0  0  0
 33 34  2  0  0  0
 33 35  1  0  0  0
 35 56  1  0  0  0
 36 37  2  0  0  0
 36 38  1  0  0  0
 38 57  1  0  0  0
 39 40  1  0  0  0
 40 41  2  0  0  0
 40 42  1  0  0  0
 42 43  1  0  0  0
 43 44  1  0  0  0
 43 48  1  0  0  0
 44 45  1  0  0  0
 45 46  2  0  0  0
 45 47  1  0  0  0
 47 58  1  0  0  0
 48 49  2  0  0  0
 48 50  1  0  0  0
 50 59  1  0  0  0
M  END
>  <AUTHOR>
    GENERATED BY OPEN BABEL 2.4.1

>  <CHROM.1>
-137.90879003,88.84673434,96.71149136,-32.31654601,28.26464013,48.46966430
174.18442779,78.52279292,54.56314926,133.53586065,179.29391269,172.84047685
50.00990303,-79.14707226,17.23366550,138.45554992,31.09238084,160.98593912
48.25504433,37.79935830,-86.51860419,92.86091988,-35.82102318,145.77582060
-171.06268370,43.37891142,-98.92763274,31.18280574,-26.42873014,168.01082720
164.54881052,-64.92936078,116.31183399,132.62689126,22.12601790,5.02857715
18.84855999,67.48881838,133.44834610,-0.80905957,2.89692371,-7.88693571,-1.05319145
0.73223967,-0.12688809

>  <COMPND>
    UNNAMED

>  <MASTER>
        0    0    0    0    0    0    0    0  109    0  109    0

>  <Name>
FB1.pdb

>  <RI>
0

>  <Rbt.Current_Directory>
/cluster/tossine/FB1_39T3/p3/1_clust02

>  <Rbt.Executable>
rbdock/0.1.0

>  <Rbt.Library>
librxdock.so/0.1.0

>  <Rbt.Parameter_File>
/cluster/rxdock/data/scripts/dock.prm

>  <Rbt.Receptor>
rx_4.prm

>  <SCORE>
106.285

>  <SCORE.INTER>
35.6899

>  <SCORE.INTER.CONST>
1

>  <SCORE.INTER.POLAR>
-4.17066

>  <SCORE.INTER.REPUL>
1.70967

>  <SCORE.INTER.ROT>
32

>  <SCORE.INTER.VDW>
3.92186

>  <SCORE.INTER.norm>
0.713799

>  <SCORE.INTRA>
65.7412

>  <SCORE.INTRA.DIHEDRAL>
90.23

>  <SCORE.INTRA.DIHEDRAL.0>
47.3121

>  <SCORE.INTRA.POLAR>
1.0246

>  <SCORE.INTRA.POLAR.0>
-1.47808

>  <SCORE.INTRA.REPUL>
0

>  <SCORE.INTRA.REPUL.0>
0

>  <SCORE.INTRA.VDW>
17.1426

>  <SCORE.INTRA.VDW.0>
-2.78316

>  <SCORE.INTRA.norm>
1.31482

>  <SCORE.RESTR>
4.85371

>  <SCORE.RESTR.CAVITY>
4.85371

>  <SCORE.RESTR.norm>
0.0970742

>  <SCORE.SYSTEM>
0

>  <SCORE.SYSTEM.CONST>
0

>  <SCORE.SYSTEM.DIHEDRAL>
0

>  <SCORE.SYSTEM.norm>
0

>  <SCORE.heavy>
50

>  <SCORE.norm>
2.1257

$$$$
