FB1.pdb
  RxDock  10072007563D
librxdock.so/0.1.0
 59 58  0  0  0  0  0  0  0  0999 V2000
   -8.6388   -8.0516   -8.5903 C   0  0  0  0  0  0
   -9.0036   -6.7138   -9.2295 C   0  0  0  0  0  0
   -8.2615   -6.4966  -10.5585 C   0  0  0  0  0  0
   -6.7230   -6.6298  -10.4358 C   0  0  0  0  0  0
   -6.0131   -5.4427   -9.6961 C   0  0  0  0  0  0
   -6.7745   -5.1664   -8.3791 C   0  0  0  0  0  0
   -4.4725   -5.7009   -9.4175 C   0  0  0  0  0  0
   -3.5466   -4.4104   -9.2085 C   0  0  0  0  0  0
   -3.6378   -3.0711  -10.0606 C   0  0  0  0  0  0
   -2.1864   -2.4106  -10.4831 C   0  0  0  0  0  0
   -2.3748   -0.9065  -10.6732 C   0  0  0  0  0  0
   -0.9747   -2.6753   -9.4798 C   0  0  0  0  0  0
    0.3875   -1.8023   -9.4514 C   0  0  0  0  0  0
    0.5542   -0.5347   -8.5452 C   0  0  0  0  0  0
    1.8967    0.3195   -8.6773 C   0  0  0  0  0  0
    2.2394    1.2520   -9.9051 C   0  0  0  0  0  0
    1.6639    2.6920   -9.9557 C   0  0  0  0  0  0
    1.7890    3.5486   -8.6367 C   0  0  0  0  0  0
    1.5118    5.0509   -8.7734 C   0  0  0  0  0  0
    0.0877    5.5015   -9.2058 C   0  0  0  0  0  0
   -0.2344    7.0103   -9.4188 C   0  0  0  0  0  0
   -0.1240    7.9062   -8.1930 C   0  0  0  0  0  0
    0.5437    7.5598  -10.5453 N   0  0  0  0  0  0
   -0.1136    4.8877  -10.5045 O   0  0  0  0  0  0
    0.8838    3.0052   -7.6696 O   0  0  0  0  0  0
    1.4036   -2.7173   -9.0075 O   0  0  0  0  0  0
   -3.7548   -3.9788   -7.8364 O   0  0  0  0  0  0
   -2.6463   -3.6991   -7.1027 C   0  0  0  0  0  0
   -1.5368   -4.1692   -7.2680 O   0  0  0  0  0  0
   -2.9928   -2.6270   -6.1067 C   0  0  0  0  0  0
   -2.1498   -2.7177   -4.8246 C   0  0  0  0  0  0
   -2.4991   -1.6199   -3.8116 C   0  0  0  0  0  0
   -3.7399   -1.9774   -3.0266 C   0  0  0  0  0  0
   -3.7238   -2.3070   -1.8456 O   0  0  0  0  0  0
   -4.8688   -1.8983   -3.7464 O   0  0  0  0  0  0
   -2.4429   -4.0994   -4.2239 C   0  0  0  0  0  0
   -2.7692   -5.0643   -4.8983 O   0  0  0  0  0  0
   -2.3597   -4.1503   -2.8873 O   0  0  0  0  0  0
   -4.2837   -6.6994   -8.3371 O   0  0  0  0  0  0
   -4.9188   -7.9246   -8.4538 C   0  0  0  0  0  0
   -4.8557   -8.6508   -9.4372 O   0  0  0  0  0  0
   -5.7248   -8.2862   -7.1992 C   0  0  0  0  0  0
   -5.0258   -9.2627   -6.2031 C   0  0  0  0  0  0
   -4.6342  -10.6607   -6.7154 C   0  0  0  0  0  0
   -4.7548  -11.7258   -5.6639 C   0  0  0  0  0  0
   -4.8578  -12.9267   -5.8733 O   0  0  0  0  0  0
   -4.7194  -11.2249   -4.4197 O   0  0  0  0  0  0
   -3.7969   -8.6793   -5.4948 C   0  0  0  0  0  0
   -2.6762   -9.1256   -5.6418 O   0  0  0  0  0  0
   -4.0207   -7.5612   -4.7729 O   0  0  0  0  0  0
    0.9349    6.7908  -11.0877 H   0  0  0  0  0  0
    1.3547    8.0570  -10.1704 H   0  0  0  0  0  0
   -1.0530    5.0684  -10.7197 H   0  0  0  0  0  0
    0.9492    3.5405   -6.8574 H   0  0  0  0  0  0
    1.3552   -3.5131   -9.5632 H   0  0  0  0  0  0
   -4.7555   -1.5921   -4.6667 H   0  0  0  0  0  0
   -2.7899   -4.9424   -2.4795 H   0  0  0  0  0  0
   -4.8381  -11.9820   -3.8082 H   0  0  0  0  0  0
   -3.2860   -6.9081   -4.7721 H   0  0  0  0  0  0
  1  2  1  0  0  0
  2  3  1  0  0  0
  3  4  1  0  0  0
  4  5  1  0  0  0
  5  6  1  0  0  0
  5  7  1  0  0  0
  7  8  1  0  0  0
  7 39  1  0  0  0
  8  9  1  0  0  0
  8 27  1  0  0  0
  9 10  1  0  0  0
 10 11  1  0  0  0
 10 12  1  0  0  0
 12 13  1  0  0  0
 13 14  1  0  0  0
 13 26  1  0  0  0
 14 15  1  0  0  0
 15 16  1  0  0  0
 16 17  1  0  0  0
 17 18  1  0  0  0
 18 19  1  0  0  0
 18 25  1  0  0  0
 19 20  1  0  0  0
 20 21  1  0  0  0
 20 24  1  0  0  0
 21 22  1  0  0  0
 21 23  1  0  0  0
 23 51  1  0  0  0
 23 52  1  0  0  0
 24 53  1  0  0  0
 25 54  1  0  0  0
 26 55  1  0  0  0
 27 28  1  0  0  0
 28 29  2  0  0  0
 28 30  1  0  0  0
 30 31  1  0  0  0
 31 32  1  0  0  0
 31 36  1  0  0  0
 32 33  1  0  0  0
 33 34  2  0  0  0
 33 35  1  0  0  0
 35 56  1  0  0  0
 36 37  2  0  0  0
 36 38  1  0  0  0
 38 57  1  0  0  0
 39 40  1  0  0  0
 40 41  2  0  0  0
 40 42  1  0  0  0
 42 43  1  0  0  0
 43 44  1  0  0  0
 43 48  1  0  0  0
 44 45  1  0  0  0
 45 46  2  0  0  0
 45 47  1  0  0  0
 47 58  1  0  0  0
 48 49  2  0  0  0
 48 50  1  0  0  0
 50 59  1  0  0  0
M  END
>  <AUTHOR>
    GENERATED BY OPEN BABEL 2.4.1

>  <CHROM.1>
-54.60417534,-72.47445464,48.59374827,156.91886843,-41.32267145,53.50505783
-138.37161648,132.78426599,-153.47943043,-161.55224489,90.78954026,-175.32120935
51.40913441,72.75343988,82.81460355,46.82726930,166.85744936,63.04542244
-179.18255563,-177.41987226,-63.35522886,172.42373689,14.57165182,-26.60742669
150.77226484,179.73441791,80.54328607,28.12985818,108.07469717,-2.12960900
163.31363075,51.53171302,-98.92767257,-60.16272037,-145.72420250,-116.43688850
159.21061409,177.89745020,-144.95969533,-2.78329750,-3.29349947,-7.57458327
2.48077862,1.02425289,2.13425691

>  <COMPND>
    UNNAMED

>  <MASTER>
        0    0    0    0    0    0    0    0  109    0  109    0

>  <Name>
FB1.pdb

>  <RI>
0

>  <Rbt.Current_Directory>
/cluster/tossine/FB1_39T3/p3/1_clust02

>  <Rbt.Executable>
rbdock/0.1.0

>  <Rbt.Library>
librxdock.so/0.1.0

>  <Rbt.Parameter_File>
/cluster/rxdock/data/scripts/dock.prm

>  <Rbt.Receptor>
rx_1.prm

>  <SCORE>
39.7526

>  <SCORE.INTER>
9.76409

>  <SCORE.INTER.CONST>
1

>  <SCORE.INTER.POLAR>
-2.82664

>  <SCORE.INTER.REPUL>
0.63731

>  <SCORE.INTER.ROT>
32

>  <SCORE.INTER.VDW>
-21.2119

>  <SCORE.INTER.norm>
0.195282

>  <SCORE.INTRA>
26.5457

>  <SCORE.INTRA.DIHEDRAL>
26.7756

>  <SCORE.INTRA.DIHEDRAL.0>
47.3121

>  <SCORE.INTRA.POLAR>
0.510372

>  <SCORE.INTRA.POLAR.0>
-1.47808

>  <SCORE.INTRA.REPUL>
0.355402

>  <SCORE.INTRA.REPUL.0>
0

>  <SCORE.INTRA.VDW>
9.64561

>  <SCORE.INTRA.VDW.0>
-2.78316

>  <SCORE.INTRA.norm>
0.530914

>  <SCORE.RESTR>
3.44278

>  <SCORE.RESTR.CAVITY>
3.44278

>  <SCORE.RESTR.norm>
0.0688556

>  <SCORE.SYSTEM>
0

>  <SCORE.SYSTEM.CONST>
0

>  <SCORE.SYSTEM.DIHEDRAL>
0

>  <SCORE.SYSTEM.norm>
0

>  <SCORE.heavy>
50

>  <SCORE.norm>
0.795051

$$$$
