FB1.pdb
  RxDock  09132013393D
librxdock.so/0.1.0
 59 58  0  0  0  0  0  0  0  0999 V2000
   -3.7420   -4.0019   -1.1336 C   0  0  0  0  0  0
   -3.2823   -2.7136   -1.8120 C   0  0  0  0  0  0
   -1.9607   -2.9109   -2.5727 C   0  0  0  0  0  0
   -2.0336   -2.4813   -4.0593 C   0  0  0  0  0  0
   -3.0659   -3.2804   -4.9289 C   0  0  0  0  0  0
   -4.4237   -2.5431   -4.8704 C   0  0  0  0  0  0
   -2.5992   -3.4919   -6.4307 C   0  0  0  0  0  0
   -2.3280   -2.1732   -7.2989 C   0  0  0  0  0  0
   -0.9937   -1.8689   -8.1083 C   0  0  0  0  0  0
    0.1066   -3.0978   -8.1304 C   0  0  0  0  0  0
   -0.2647   -4.0612   -9.2566 C   0  0  0  0  0  0
    1.6364   -2.6694   -8.2757 C   0  0  0  0  0  0
    2.1993   -1.6942   -9.4379 C   0  0  0  0  0  0
    1.5498   -0.3038   -9.7556 C   0  0  0  0  0  0
    1.7667    0.3189  -11.2097 C   0  0  0  0  0  0
    2.8659    1.3979  -11.5594 C   0  0  0  0  0  0
    3.2721    2.4490  -10.4928 C   0  0  0  0  0  0
    2.0971    3.1288   -9.6889 C   0  0  0  0  0  0
    2.5065    4.1558   -8.6258 C   0  0  0  0  0  0
    3.3088    5.4079   -9.0804 C   0  0  0  0  0  0
    2.5716    6.6575   -9.6466 C   0  0  0  0  0  0
    1.4608    7.2380   -8.7826 C   0  0  0  0  0  0
    3.5354    7.7032  -10.0392 N   0  0  0  0  0  0
    3.9721    5.8760   -7.8784 O   0  0  0  0  0  0
    1.2306    3.7703  -10.6310 O   0  0  0  0  0  0
    3.5507   -1.3968   -9.0482 O   0  0  0  0  0  0
   -3.3772   -2.1252   -8.3036 O   0  0  0  0  0  0
   -3.3877   -3.1165   -9.2323 C   0  0  0  0  0  0
   -2.9372   -4.2376   -9.0929 O   0  0  0  0  0  0
   -4.1444   -2.6312  -10.4378 C   0  0  0  0  0  0
   -3.2679   -1.8031  -11.3910 C   0  0  0  0  0  0
   -3.8829   -1.6700  -12.7901 C   0  0  0  0  0  0
   -4.0812   -3.0247  -13.4295 C   0  0  0  0  0  0
   -3.5041   -3.3841  -14.4500 O   0  0  0  0  0  0
   -4.9522   -3.8038  -12.7713 O   0  0  0  0  0  0
   -3.1320   -0.4183  -10.7430 C   0  0  0  0  0  0
   -2.0662    0.0338  -10.3527 O   0  0  0  0  0  0
   -4.2905    0.2388  -10.5941 O   0  0  0  0  0  0
   -1.4699   -4.4501   -6.5106 O   0  0  0  0  0  0
   -1.7496   -5.7759   -6.7968 C   0  0  0  0  0  0
   -1.0841   -6.4828   -7.5424 O   0  0  0  0  0  0
   -3.0034   -6.2785   -6.0689 C   0  0  0  0  0  0
   -3.3457   -7.7871   -6.2722 C   0  0  0  0  0  0
   -3.1463   -8.7411   -5.0804 C   0  0  0  0  0  0
   -3.9591   -8.3557   -3.8782 C   0  0  0  0  0  0
   -3.7541   -7.3879   -3.1586 O   0  0  0  0  0  0
   -4.9863   -9.1920   -3.6637 O   0  0  0  0  0  0
   -4.7474   -8.0526   -6.8353 C   0  0  0  0  0  0
   -5.6697   -8.4494   -6.1506 O   0  0  0  0  0  0
   -4.9256   -7.7142   -8.1295 O   0  0  0  0  0  0
    4.3382    7.6698   -9.4124 H   0  0  0  0  0  0
    3.1100    8.6181   -9.8739 H   0  0  0  0  0  0
    4.7587    5.2974   -7.7896 H   0  0  0  0  0  0
    0.6982    3.0827  -11.0717 H   0  0  0  0  0  0
    4.0016   -2.2372   -8.8611 H   0  0  0  0  0  0
   -5.0289   -4.7179  -13.1059 H   0  0  0  0  0  0
   -4.1923    1.1998  -10.3805 H   0  0  0  0  0  0
   -5.4919   -8.8281   -2.9065 H   0  0  0  0  0  0
   -4.1170   -7.4116   -8.5993 H   0  0  0  0  0  0
  1  2  1  0  0  0
  2  3  1  0  0  0
  3  4  1  0  0  0
  4  5  1  0  0  0
  5  6  1  0  0  0
  5  7  1  0  0  0
  7  8  1  0  0  0
  7 39  1  0  0  0
  8  9  1  0  0  0
  8 27  1  0  0  0
  9 10  1  0  0  0
 10 11  1  0  0  0
 10 12  1  0  0  0
 12 13  1  0  0  0
 13 14  1  0  0  0
 13 26  1  0  0  0
 14 15  1  0  0  0
 15 16  1  0  0  0
 16 17  1  0  0  0
 17 18  1  0  0  0
 18 19  1  0  0  0
 18 25  1  0  0  0
 19 20  1  0  0  0
 20 21  1  0  0  0
 20 24  1  0  0  0
 21 22  1  0  0  0
 21 23  1  0  0  0
 23 51  1  0  0  0
 23 52  1  0  0  0
 24 53  1  0  0  0
 25 54  1  0  0  0
 26 55  1  0  0  0
 27 28  1  0  0  0
 28 29  2  0  0  0
 28 30  1  0  0  0
 30 31  1  0  0  0
 31 32  1  0  0  0
 31 36  1  0  0  0
 32 33  1  0  0  0
 33 34  2  0  0  0
 33 35  1  0  0  0
 35 56  1  0  0  0
 36 37  2  0  0  0
 36 38  1  0  0  0
 38 57  1  0  0  0
 39 40  1  0  0  0
 40 41  2  0  0  0
 40 42  1  0  0  0
 42 43  1  0  0  0
 43 44  1  0  0  0
 43 48  1  0  0  0
 44 45  1  0  0  0
 45 46  2  0  0  0
 45 47  1  0  0  0
 47 58  1  0  0  0
 48 49  2  0  0  0
 48 50  1  0  0  0
 50 59  1  0  0  0
M  END
>  <AUTHOR>
    GENERATED BY OPEN BABEL 2.4.1

>  <CHROM.1>
125.81885875,-61.70826423,90.32371801,-59.80617919,127.35994942,96.43920454
5.66078033,-65.22346024,84.38588520,-52.29820832,50.83741940,-156.61246054
51.06156779,-97.55064643,-32.97286722,-44.28753500,179.36362964,59.86657341
75.66487446,83.78881337,53.24854474,80.68950254,-33.09799088,26.01839455
83.75881387,162.56994765,-59.74805158,115.64650848,-116.39168214,-173.74829843
-166.26498242,139.38773199,-176.69207386,109.11449167,59.10488728,-103.85950722
-71.19694221,-176.01208693,5.47832674,-1.43902159,-2.08679660,-8.13900048
-2.53912771,-0.96318056,-1.25360892

>  <COMPND>
    UNNAMED

>  <MASTER>
        0    0    0    0    0    0    0    0  109    0  109    0

>  <Name>
FB1.pdb

>  <RI>
0

>  <Rbt.Current_Directory>
/home/fc/tossine/FB1_39T3/p3/1_clust02

>  <Rbt.Executable>
rbdock/0.1.0

>  <Rbt.Library>
librxdock.so/0.1.0

>  <Rbt.Parameter_File>
/cluster/rxdock/data/scripts/dock.prm

>  <Rbt.Receptor>
rx_4.prm

>  <SCORE>
40.3983

>  <SCORE.INTER>
16.7371

>  <SCORE.INTER.CONST>
1

>  <SCORE.INTER.POLAR>
-2.16441

>  <SCORE.INTER.REPUL>
0.66862

>  <SCORE.INTER.ROT>
32

>  <SCORE.INTER.VDW>
-16.647

>  <SCORE.INTER.norm>
0.334742

>  <SCORE.INTRA>
20.0255

>  <SCORE.INTRA.DIHEDRAL>
28.2607

>  <SCORE.INTRA.DIHEDRAL.0>
47.3121

>  <SCORE.INTRA.POLAR>
1.46402

>  <SCORE.INTRA.POLAR.0>
-1.47808

>  <SCORE.INTRA.REPUL>
0

>  <SCORE.INTRA.REPUL.0>
0

>  <SCORE.INTRA.VDW>
0.917467

>  <SCORE.INTRA.VDW.0>
-2.78316

>  <SCORE.INTRA.norm>
0.400509

>  <SCORE.RESTR>
3.63574

>  <SCORE.RESTR.CAVITY>
3.63574

>  <SCORE.RESTR.norm>
0.0727147

>  <SCORE.SYSTEM>
0

>  <SCORE.SYSTEM.CONST>
0

>  <SCORE.SYSTEM.DIHEDRAL>
0

>  <SCORE.SYSTEM.norm>
0

>  <SCORE.heavy>
50

>  <SCORE.norm>
0.807965

$$$$
