FB1.pdb
  RxDock  09132012153D
librxdock.so/0.1.0
 59 58  0  0  0  0  0  0  0  0999 V2000
   -4.5544    1.0993  -11.4529 C   0  0  0  0  0  0
   -3.9564   -0.2702  -11.7663 C   0  0  0  0  0  0
   -4.6290   -1.3857  -10.9494 C   0  0  0  0  0  0
   -4.1134   -2.8040  -11.2992 C   0  0  0  0  0  0
   -5.0668   -3.9767  -10.8795 C   0  0  0  0  0  0
   -5.4977   -4.7330  -12.1574 C   0  0  0  0  0  0
   -4.4224   -4.9694   -9.8226 C   0  0  0  0  0  0
   -4.9945   -6.4654   -9.7894 C   0  0  0  0  0  0
   -6.5342   -6.8577   -9.8494 C   0  0  0  0  0  0
   -7.3722   -6.6181   -8.4487 C   0  0  0  0  0  0
   -8.7779   -6.1343   -8.8012 C   0  0  0  0  0  0
   -7.4683   -7.8695   -7.4641 C   0  0  0  0  0  0
   -6.2056   -8.5016   -6.6737 C   0  0  0  0  0  0
   -6.3528   -9.7058   -5.6816 C   0  0  0  0  0  0
   -6.2030   -9.4214   -4.1177 C   0  0  0  0  0  0
   -7.0491  -10.1454   -2.9977 C   0  0  0  0  0  0
   -8.5342   -9.7493   -2.7854 C   0  0  0  0  0  0
   -9.2817  -10.4358   -1.5775 C   0  0  0  0  0  0
  -10.3219   -9.5779   -0.8463 C   0  0  0  0  0  0
   -9.8750   -8.2000   -0.2807 C   0  0  0  0  0  0
  -10.9216   -7.2110    0.3125 C   0  0  0  0  0  0
  -11.6377   -7.6610    1.5783 C   0  0  0  0  0  0
  -10.3359   -5.8683    0.4871 N   0  0  0  0  0  0
   -8.9957   -8.5246    0.8263 O   0  0  0  0  0  0
   -9.9293  -11.6136   -2.0706 O   0  0  0  0  0  0
   -5.3215   -8.9713   -7.7054 O   0  0  0  0  0  0
   -4.4038   -7.1517  -10.9262 O   0  0  0  0  0  0
   -4.3730   -8.5089  -10.8795 C   0  0  0  0  0  0
   -5.1360   -9.2249  -10.2593 O   0  0  0  0  0  0
   -3.2943   -8.9929  -11.8088 C   0  0  0  0  0  0
   -3.6579  -10.3191  -12.4955 C   0  0  0  0  0  0
   -4.2595  -10.1136  -13.8916 C   0  0  0  0  0  0
   -4.0543   -8.6951  -14.3702 C   0  0  0  0  0  0
   -4.9470   -7.8551  -14.4051 O   0  0  0  0  0  0
   -2.7953   -8.4376  -14.7544 O   0  0  0  0  0  0
   -2.3484  -11.1131  -12.5994 C   0  0  0  0  0  0
   -1.9151  -11.8067  -11.6918 O   0  0  0  0  0  0
   -1.6897  -10.9446  -13.7542 O   0  0  0  0  0  0
   -2.9413   -4.9440   -9.8979 O   0  0  0  0  0  0
   -2.2594   -4.0013   -9.1465 C   0  0  0  0  0  0
   -1.0774   -3.7180   -9.2913 O   0  0  0  0  0  0
   -3.1548   -3.3348   -8.0938 C   0  0  0  0  0  0
   -2.5110   -3.1326   -6.6870 C   0  0  0  0  0  0
   -1.6052   -4.2502   -6.1386 C   0  0  0  0  0  0
   -1.8610   -5.5819   -6.7834 C   0  0  0  0  0  0
   -1.1671   -6.1019   -7.6463 O   0  0  0  0  0  0
   -2.9550   -6.1866   -6.2956 O   0  0  0  0  0  0
   -1.7525   -1.8105   -6.5170 C   0  0  0  0  0  0
   -0.9287   -1.4142   -7.3177 O   0  0  0  0  0  0
   -2.1356   -1.0534   -5.4676 O   0  0  0  0  0  0
   -9.3822   -5.9624    0.8337 H   0  0  0  0  0  0
  -10.8412   -5.3860    1.2338 H   0  0  0  0  0  0
   -9.5313   -9.1088    1.4036 H   0  0  0  0  0  0
  -10.6020  -11.3410   -2.7215 H   0  0  0  0  0  0
   -5.8248   -9.5683   -8.2839 H   0  0  0  0  0  0
   -2.5902   -7.4949  -14.9051 H   0  0  0  0  0  0
   -0.7862  -11.3472  -13.7734 H   0  0  0  0  0  0
   -3.0485   -7.0333   -6.7810 H   0  0  0  0  0  0
   -1.6909   -0.1798   -5.3957 H   0  0  0  0  0  0
  1  2  1  0  0  0
  2  3  1  0  0  0
  3  4  1  0  0  0
  4  5  1  0  0  0
  5  6  1  0  0  0
  5  7  1  0  0  0
  7  8  1  0  0  0
  7 39  1  0  0  0
  8  9  1  0  0  0
  8 27  1  0  0  0
  9 10  1  0  0  0
 10 11  1  0  0  0
 10 12  1  0  0  0
 12 13  1  0  0  0
 13 14  1  0  0  0
 13 26  1  0  0  0
 14 15  1  0  0  0
 15 16  1  0  0  0
 16 17  1  0  0  0
 17 18  1  0  0  0
 18 19  1  0  0  0
 18 25  1  0  0  0
 19 20  1  0  0  0
 20 21  1  0  0  0
 20 24  1  0  0  0
 21 22  1  0  0  0
 21 23  1  0  0  0
 23 51  1  0  0  0
 23 52  1  0  0  0
 24 53  1  0  0  0
 25 54  1  0  0  0
 26 55  1  0  0  0
 27 28  1  0  0  0
 28 29  2  0  0  0
 28 30  1  0  0  0
 30 31  1  0  0  0
 31 32  1  0  0  0
 31 36  1  0  0  0
 32 33  1  0  0  0
 33 34  2  0  0  0
 33 35  1  0  0  0
 35 56  1  0  0  0
 36 37  2  0  0  0
 36 38  1  0  0  0
 38 57  1  0  0  0
 39 40  1  0  0  0
 40 41  2  0  0  0
 40 42  1  0  0  0
 42 43  1  0  0  0
 43 44  1  0  0  0
 43 48  1  0  0  0
 44 45  1  0  0  0
 45 46  2  0  0  0
 45 47  1  0  0  0
 47 58  1  0  0  0
 48 49  2  0  0  0
 48 50  1  0  0  0
 50 59  1  0  0  0
M  END
>  <AUTHOR>
    GENERATED BY OPEN BABEL 2.4.1

>  <CHROM.1>
176.43872858,-160.18320389,118.38896902,-154.85943087,-43.97329502,87.46438287
-75.88487380,159.01830303,143.11477262,67.39527905,178.11305916,-107.84264066
-54.44199383,143.43923993,-74.88754599,-175.45023644,145.26546001,-54.95817560
-63.57647322,172.36806671,65.41856705,-55.18767482,-40.14772727,26.22597618
-145.27264683,96.10285709,13.04126325,84.58969161,-105.19434341,-168.79714467
171.52206488,-166.55401686,137.61417531,-38.97122917,-21.52186955,-49.28464218
102.60297956,179.13412948,-176.03313070,-5.10210415,-6.71978908,-7.88876977
-0.33483762,1.02501660,0.62114500

>  <COMPND>
    UNNAMED

>  <MASTER>
        0    0    0    0    0    0    0    0  109    0  109    0

>  <Name>
FB1.pdb

>  <RI>
0

>  <Rbt.Current_Directory>
/home/fc/tossine/FB1_39T3/p3/1_clust02

>  <Rbt.Executable>
rbdock/0.1.0

>  <Rbt.Library>
librxdock.so/0.1.0

>  <Rbt.Parameter_File>
/cluster/rxdock/data/scripts/dock.prm

>  <Rbt.Receptor>
rx_0.prm

>  <SCORE>
26.0039

>  <SCORE.INTER>
2.33792

>  <SCORE.INTER.CONST>
1

>  <SCORE.INTER.POLAR>
-1.39129

>  <SCORE.INTER.REPUL>
0.01461

>  <SCORE.INTER.ROT>
32

>  <SCORE.INTER.VDW>
-30.4048

>  <SCORE.INTER.norm>
0.0467583

>  <SCORE.INTRA>
22.5492

>  <SCORE.INTRA.DIHEDRAL>
23.1036

>  <SCORE.INTRA.DIHEDRAL.0>
47.3121

>  <SCORE.INTRA.POLAR>
1.38597

>  <SCORE.INTRA.POLAR.0>
-1.47808

>  <SCORE.INTRA.REPUL>
0.317997

>  <SCORE.INTRA.REPUL.0>
0

>  <SCORE.INTRA.VDW>
4.69508

>  <SCORE.INTRA.VDW.0>
-2.78316

>  <SCORE.INTRA.norm>
0.450983

>  <SCORE.RESTR>
1.1168

>  <SCORE.RESTR.CAVITY>
1.1168

>  <SCORE.RESTR.norm>
0.022336

>  <SCORE.SYSTEM>
0

>  <SCORE.SYSTEM.CONST>
0

>  <SCORE.SYSTEM.DIHEDRAL>
0

>  <SCORE.SYSTEM.norm>
0

>  <SCORE.heavy>
50

>  <SCORE.norm>
0.520078

$$$$
