FB1.pdb
  RxDock  10072008073D
librxdock.so/0.1.0
 59 58  0  0  0  0  0  0  0  0999 V2000
   -2.1720   -1.8073   -4.7514 C   0  0  0  0  0  0
   -2.5997   -3.1527   -5.3330 C   0  0  0  0  0  0
   -2.6144   -3.1296   -6.8703 C   0  0  0  0  0  0
   -3.5698   -4.1771   -7.4946 C   0  0  0  0  0  0
   -3.4340   -4.3542   -9.0472 C   0  0  0  0  0  0
   -2.2399   -5.2962   -9.3258 C   0  0  0  0  0  0
   -4.7555   -4.8926   -9.7412 C   0  0  0  0  0  0
   -5.7474   -5.7648   -8.8349 C   0  0  0  0  0  0
   -7.3257   -5.8368   -9.0143 C   0  0  0  0  0  0
   -8.1586   -6.3428   -7.6832 C   0  0  0  0  0  0
   -9.6394   -6.0280   -7.8890 C   0  0  0  0  0  0
   -7.9881   -7.8792   -7.2892 C   0  0  0  0  0  0
   -8.8359   -8.6171   -6.1251 C   0  0  0  0  0  0
   -8.7733   -8.1658   -4.6256 C   0  0  0  0  0  0
   -9.4108   -6.7559   -4.2317 C   0  0  0  0  0  0
  -10.9626   -6.4782   -4.1353 C   0  0  0  0  0  0
  -11.7231   -6.8328   -2.8302 C   0  0  0  0  0  0
  -11.7156   -5.7417   -1.6906 C   0  0  0  0  0  0
  -12.6599   -5.9885   -0.5074 C   0  0  0  0  0  0
  -12.9925   -4.7947    0.4320 C   0  0  0  0  0  0
  -11.8517   -3.9783    1.1083 C   0  0  0  0  0  0
  -12.2479   -2.6453    1.7277 C   0  0  0  0  0  0
  -11.1125   -4.8106    2.0764 N   0  0  0  0  0  0
  -13.6847   -3.8421   -0.4149 O   0  0  0  0  0  0
  -10.3784   -5.6345   -1.1905 O   0  0  0  0  0  0
  -10.2115   -8.4530   -6.5091 O   0  0  0  0  0  0
   -5.3075   -7.1442   -8.9626 O   0  0  0  0  0  0
   -5.3166   -7.6815  -10.2102 C   0  0  0  0  0  0
   -5.6336   -7.1114  -11.2367 O   0  0  0  0  0  0
   -4.7692   -9.0798  -10.1301 C   0  0  0  0  0  0
   -5.4094  -10.0243  -11.1600 C   0  0  0  0  0  0
   -5.1335   -9.5925  -12.6060 C   0  0  0  0  0  0
   -3.6554   -9.3827  -12.8397 C   0  0  0  0  0  0
   -2.7798   -9.9250  -12.1742 O   0  0  0  0  0  0
   -3.3882   -8.5434  -13.8511 O   0  0  0  0  0  0
   -4.7991  -11.4084  -10.8996 C   0  0  0  0  0  0
   -4.5746  -11.8381   -9.7783 O   0  0  0  0  0  0
   -4.4848  -12.0918  -12.0088 O   0  0  0  0  0  0
   -5.4681   -3.8039  -10.4531 O   0  0  0  0  0  0
   -4.9188   -3.3135  -11.6261 C   0  0  0  0  0  0
   -4.0908   -3.9040  -12.3074 O   0  0  0  0  0  0
   -5.4656   -1.9274  -11.9920 C   0  0  0  0  0  0
   -4.7746   -0.7190  -11.2872 C   0  0  0  0  0  0
   -3.3024   -0.4266  -11.6303 C   0  0  0  0  0  0
   -2.4588   -1.6668  -11.6995 C   0  0  0  0  0  0
   -2.1731   -2.2795  -12.7192 O   0  0  0  0  0  0
   -2.0108   -2.0506  -10.4944 O   0  0  0  0  0  0
   -5.5377    0.6066  -11.4000 C   0  0  0  0  0  0
   -6.6799    0.6782  -11.8087 O   0  0  0  0  0  0
   -4.8948    1.6886  -10.9129 O   0  0  0  0  0  0
  -10.6147   -4.2042    2.7268 H   0  0  0  0  0  0
  -10.3795   -5.3194    1.5771 H   0  0  0  0  0  0
  -14.2678   -3.3458    0.1974 H   0  0  0  0  0  0
  -10.0997   -6.5143   -0.8763 H   0  0  0  0  0  0
  -10.7537   -9.0186   -5.9342 H   0  0  0  0  0  0
   -4.1673   -8.1113  -14.2508 H   0  0  0  0  0  0
   -4.4180  -13.0707  -11.8821 H   0  0  0  0  0  0
   -1.4745   -2.8588  -10.6380 H   0  0  0  0  0  0
   -5.4287    2.5132  -10.8772 H   0  0  0  0  0  0
  1  2  1  0  0  0
  2  3  1  0  0  0
  3  4  1  0  0  0
  4  5  1  0  0  0
  5  6  1  0  0  0
  5  7  1  0  0  0
  7  8  1  0  0  0
  7 39  1  0  0  0
  8  9  1  0  0  0
  8 27  1  0  0  0
  9 10  1  0  0  0
 10 11  1  0  0  0
 10 12  1  0  0  0
 12 13  1  0  0  0
 13 14  1  0  0  0
 13 26  1  0  0  0
 14 15  1  0  0  0
 15 16  1  0  0  0
 16 17  1  0  0  0
 17 18  1  0  0  0
 18 19  1  0  0  0
 18 25  1  0  0  0
 19 20  1  0  0  0
 20 21  1  0  0  0
 20 24  1  0  0  0
 21 22  1  0  0  0
 21 23  1  0  0  0
 23 51  1  0  0  0
 23 52  1  0  0  0
 24 53  1  0  0  0
 25 54  1  0  0  0
 26 55  1  0  0  0
 27 28  1  0  0  0
 28 29  2  0  0  0
 28 30  1  0  0  0
 30 31  1  0  0  0
 31 32  1  0  0  0
 31 36  1  0  0  0
 32 33  1  0  0  0
 33 34  2  0  0  0
 33 35  1  0  0  0
 35 56  1  0  0  0
 36 37  2  0  0  0
 36 38  1  0  0  0
 38 57  1  0  0  0
 39 40  1  0  0  0
 40 41  2  0  0  0
 40 42  1  0  0  0
 42 43  1  0  0  0
 43 44  1  0  0  0
 43 48  1  0  0  0
 44 45  1  0  0  0
 45 46  2  0  0  0
 45 47  1  0  0  0
 47 58  1  0  0  0
 48 49  2  0  0  0
 48 50  1  0  0  0
 50 59  1  0  0  0
M  END
>  <AUTHOR>
    GENERATED BY OPEN BABEL 2.4.1

>  <CHROM.1>
-155.38387880,-170.04119902,81.70687200,-26.27618504,149.88036669,72.12132934
-159.14416281,-60.05396783,165.99721732,-173.02725116,-61.13020226,68.67236586
169.56482719,74.28712193,83.94869293,85.62749369,169.83726024,-163.33484641
-57.45238280,-54.41108296,165.73570755,152.35158234,-160.11696062,1.50768859
147.62240323,62.49178608,52.22900634,39.06587936,24.48167832,5.52398104,-158.21845129
19.31480906,83.24956229,66.27024332,-42.90433541,11.40067347,96.61593411
-179.91844936,-172.28231479,-6.48049729,-5.44515979,-7.87623410,-2.93273846
-0.92488991,-2.88675784

>  <COMPND>
    UNNAMED

>  <MASTER>
        0    0    0    0    0    0    0    0  109    0  109    0

>  <Name>
FB1.pdb

>  <RI>
0

>  <Rbt.Current_Directory>
/cluster/tossine/FB1_39T3/p3/1_clust02

>  <Rbt.Executable>
rbdock/0.1.0

>  <Rbt.Library>
librxdock.so/0.1.0

>  <Rbt.Parameter_File>
/cluster/rxdock/data/scripts/dock.prm

>  <Rbt.Receptor>
rx_1.prm

>  <SCORE>
18.2577

>  <SCORE.INTER>
10.33

>  <SCORE.INTER.CONST>
1

>  <SCORE.INTER.POLAR>
-1.24859

>  <SCORE.INTER.REPUL>
0.332285

>  <SCORE.INTER.ROT>
32

>  <SCORE.INTER.VDW>
-24.4862

>  <SCORE.INTER.norm>
0.206601

>  <SCORE.INTRA>
5.95241

>  <SCORE.INTRA.DIHEDRAL>
0.401381

>  <SCORE.INTRA.DIHEDRAL.0>
47.3121

>  <SCORE.INTRA.POLAR>
1.47808

>  <SCORE.INTRA.POLAR.0>
-1.47808

>  <SCORE.INTRA.REPUL>
0

>  <SCORE.INTRA.REPUL.0>
0

>  <SCORE.INTRA.VDW>
0.726263

>  <SCORE.INTRA.VDW.0>
-2.78316

>  <SCORE.INTRA.norm>
0.119048

>  <SCORE.RESTR>
1.97524

>  <SCORE.RESTR.CAVITY>
1.97524

>  <SCORE.RESTR.norm>
0.0395047

>  <SCORE.SYSTEM>
0

>  <SCORE.SYSTEM.CONST>
0

>  <SCORE.SYSTEM.DIHEDRAL>
0

>  <SCORE.SYSTEM.norm>
0

>  <SCORE.heavy>
50

>  <SCORE.norm>
0.365154

$$$$
