FB1.pdb
  RxDock  10072007233D
librxdock.so/0.1.0
 59 58  0  0  0  0  0  0  0  0999 V2000
   -3.8871   -0.2012  -10.9384 C   0  0  0  0  0  0
   -2.8803   -1.3075  -11.2446 C   0  0  0  0  0  0
   -1.4318   -0.7986  -11.1593 C   0  0  0  0  0  0
   -0.9347   -0.5911   -9.7069 C   0  0  0  0  0  0
   -1.0926   -1.8384   -8.7690 C   0  0  0  0  0  0
   -0.2128   -2.9805   -9.3277 C   0  0  0  0  0  0
   -0.7375   -1.5388   -7.2518 C   0  0  0  0  0  0
   -1.3143   -2.5561   -6.1569 C   0  0  0  0  0  0
   -2.5260   -2.2515   -5.1734 C   0  0  0  0  0  0
   -2.3339   -2.8099   -3.6330 C   0  0  0  0  0  0
   -1.3889   -1.8672   -2.8896 C   0  0  0  0  0  0
   -3.6704   -3.0062   -2.7845 C   0  0  0  0  0  0
   -3.7011   -3.4601   -1.2316 C   0  0  0  0  0  0
   -3.2048   -4.8693   -0.7582 C   0  0  0  0  0  0
   -3.9546   -6.1634   -1.3171 C   0  0  0  0  0  0
   -3.5305   -7.6484   -0.9862 C   0  0  0  0  0  0
   -4.0046   -8.3017    0.3389 C   0  0  0  0  0  0
   -4.0112   -7.3782    1.6181 C   0  0  0  0  0  0
   -5.0205   -7.7426    2.7140 C   0  0  0  0  0  0
   -4.8972   -9.1344    3.3967 C   0  0  0  0  0  0
   -5.1951  -10.4372    2.5972 C   0  0  0  0  0  0
   -6.5493  -10.5133    1.9061 C   0  0  0  0  0  0
   -4.1028  -10.7346    1.6511 N   0  0  0  0  0  0
   -3.5003   -9.2364    3.7738 O   0  0  0  0  0  0
   -2.6967   -7.3996    2.1851 O   0  0  0  0  0  0
   -2.8539   -2.5168   -0.5540 O   0  0  0  0  0  0
   -1.7315   -3.7429   -6.8849 O   0  0  0  0  0  0
   -1.9988   -4.8544   -6.1512 C   0  0  0  0  0  0
   -2.4648   -4.8801   -5.0280 O   0  0  0  0  0  0
   -1.7171   -6.0638   -6.9994 C   0  0  0  0  0  0
   -2.9304   -7.0004   -7.1136 C   0  0  0  0  0  0
   -3.4633   -7.4430   -5.7448 C   0  0  0  0  0  0
   -4.5255   -8.5077   -5.8917 C   0  0  0  0  0  0
   -5.4268   -8.6832   -5.0790 O   0  0  0  0  0  0
   -4.3908   -9.2472   -7.0025 O   0  0  0  0  0  0
   -4.0076   -6.2057   -7.8648 C   0  0  0  0  0  0
   -4.5617   -6.6202   -8.8715 O   0  0  0  0  0  0
   -4.2576   -4.9927   -7.3529 O   0  0  0  0  0  0
    0.7167   -1.3040   -7.0785 O   0  0  0  0  0  0
    1.1274   -0.3900   -6.1225 C   0  0  0  0  0  0
    0.7466   -0.3804   -4.9592 O   0  0  0  0  0  0
    2.1290    0.6292   -6.6816 C   0  0  0  0  0  0
    1.5500    1.6588   -7.7010 C   0  0  0  0  0  0
    0.1585    2.2535   -7.4172 C   0  0  0  0  0  0
   -0.2892    2.0476   -5.9988 C   0  0  0  0  0  0
    0.0409    2.7318   -5.0399 O   0  0  0  0  0  0
   -1.1347    1.0134   -5.8726 O   0  0  0  0  0  0
    2.4855    2.8299   -8.0255 C   0  0  0  0  0  0
    3.5282    3.0259   -7.4328 O   0  0  0  0  0  0
    2.1302    3.5772   -9.0916 O   0  0  0  0  0  0
   -4.3874  -11.5009    1.0425 H   0  0  0  0  0  0
   -3.3050  -11.0982    2.1771 H   0  0  0  0  0  0
   -3.4031  -10.1503    4.1153 H   0  0  0  0  0  0
   -2.5273   -8.2970    2.5265 H   0  0  0  0  0  0
   -2.9592   -2.6513    0.4027 H   0  0  0  0  0  0
   -5.0121   -9.9963   -7.0821 H   0  0  0  0  0  0
   -4.1865   -4.9409   -6.3675 H   0  0  0  0  0  0
   -1.1914    0.8117   -4.9148 H   0  0  0  0  0  0
    2.7561    4.2979   -9.3264 H   0  0  0  0  0  0
  1  2  1  0  0  0
  2  3  1  0  0  0
  3  4  1  0  0  0
  4  5  1  0  0  0
  5  6  1  0  0  0
  5  7  1  0  0  0
  7  8  1  0  0  0
  7 39  1  0  0  0
  8  9  1  0  0  0
  8 27  1  0  0  0
  9 10  1  0  0  0
 10 11  1  0  0  0
 10 12  1  0  0  0
 12 13  1  0  0  0
 13 14  1  0  0  0
 13 26  1  0  0  0
 14 15  1  0  0  0
 15 16  1  0  0  0
 16 17  1  0  0  0
 17 18  1  0  0  0
 18 19  1  0  0  0
 18 25  1  0  0  0
 19 20  1  0  0  0
 20 21  1  0  0  0
 20 24  1  0  0  0
 21 22  1  0  0  0
 21 23  1  0  0  0
 23 51  1  0  0  0
 23 52  1  0  0  0
 24 53  1  0  0  0
 25 54  1  0  0  0
 26 55  1  0  0  0
 27 28  1  0  0  0
 28 29  2  0  0  0
 28 30  1  0  0  0
 30 31  1  0  0  0
 31 32  1  0  0  0
 31 36  1  0  0  0
 32 33  1  0  0  0
 33 34  2  0  0  0
 33 35  1  0  0  0
 35 56  1  0  0  0
 36 37  2  0  0  0
 36 38  1  0  0  0
 38 57  1  0  0  0
 39 40  1  0  0  0
 40 41  2  0  0  0
 40 42  1  0  0  0
 42 43  1  0  0  0
 43 44  1  0  0  0
 43 48  1  0  0  0
 44 45  1  0  0  0
 45 46  2  0  0  0
 45 47  1  0  0  0
 47 58  1  0  0  0
 48 49  2  0  0  0
 48 50  1  0  0  0
 50 59  1  0  0  0
M  END
>  <AUTHOR>
    GENERATED BY OPEN BABEL 2.4.1

>  <CHROM.1>
74.95481408,53.64156406,63.24101402,160.19780812,-105.62871187,145.90138393
-139.97313659,166.75390169,77.44229652,-176.30855712,-65.06258298,-61.55979903
170.38461607,177.07445957,82.70118335,-39.33691075,152.80147072,61.36701444
-67.09179103,-68.07883172,-54.19103940,-174.07552844,-171.15481287,32.79285473
-124.19893404,-55.43384070,-172.07328745,126.22144303,-152.37697699,174.49985821
-34.67013713,50.15111387,69.57542855,40.53080114,16.14654766,-7.76455036
81.45441514,165.91733758,-176.90549568,-2.16370035,-3.77484411,-4.66600460
0.81082313,-1.05318561,-1.44910115

>  <COMPND>
    UNNAMED

>  <MASTER>
        0    0    0    0    0    0    0    0  109    0  109    0

>  <Name>
FB1.pdb

>  <RI>
0

>  <Rbt.Current_Directory>
/cluster/tossine/FB1_39T3/p3/1_clust02

>  <Rbt.Executable>
rbdock/0.1.0

>  <Rbt.Library>
librxdock.so/0.1.0

>  <Rbt.Parameter_File>
/cluster/rxdock/data/scripts/dock.prm

>  <Rbt.Receptor>
rx_0.prm

>  <SCORE>
105.676

>  <SCORE.INTER>
81.9993

>  <SCORE.INTER.CONST>
1

>  <SCORE.INTER.POLAR>
-0.331792

>  <SCORE.INTER.REPUL>
1.79891

>  <SCORE.INTER.ROT>
32

>  <SCORE.INTER.VDW>
36.7328

>  <SCORE.INTER.norm>
1.63999

>  <SCORE.INTRA>
21.3845

>  <SCORE.INTRA.DIHEDRAL>
23.4056

>  <SCORE.INTRA.DIHEDRAL.0>
47.3121

>  <SCORE.INTRA.POLAR>
0.918314

>  <SCORE.INTRA.POLAR.0>
-1.47808

>  <SCORE.INTRA.REPUL>
0

>  <SCORE.INTRA.REPUL.0>
0

>  <SCORE.INTRA.VDW>
6.55944

>  <SCORE.INTRA.VDW.0>
-2.78316

>  <SCORE.INTRA.norm>
0.42769

>  <SCORE.RESTR>
2.29235

>  <SCORE.RESTR.CAVITY>
2.29235

>  <SCORE.RESTR.norm>
0.045847

>  <SCORE.SYSTEM>
0

>  <SCORE.SYSTEM.CONST>
0

>  <SCORE.SYSTEM.DIHEDRAL>
0

>  <SCORE.SYSTEM.norm>
0

>  <SCORE.heavy>
50

>  <SCORE.norm>
2.11352

$$$$
