@<TRIPOS>MOLECULE
dna.pdb
 1573 1757 0 0 0
SMALL
GASTEIGER

@<TRIPOS>ATOM
      1  O5'       -6.0660   -7.7640    0.2950 O.3     1  DA1        -0.2176
      2  C5'       -6.8010   -7.7510   -0.9050 C.3     1  DA1         0.2141
      3  C4'       -7.3750   -6.3720   -1.1630 C.3     1  DA1         0.1795
      4  O4'       -7.4130   -5.5810    0.0540 O.3     1  DA1        -0.3193
      5  C3'       -6.6140   -5.4660   -2.1100 C.3     1  DA1         0.1594
      6  O3'       -6.8780   -5.8110   -3.4410 O.3     1  DA1        -0.3137
      7  C2'       -7.2520   -4.1260   -1.7770 C.3     1  DA1         0.1166
      8  C1'       -7.2960   -4.2040   -0.2600 C.3     1  DA1         0.2388
      9  N9        -6.2140   -3.6950    0.4990 N.pl3   1  DA1        -0.2377
     10  C8        -5.5500   -4.4580    1.4240 C.2     1  DA1         0.2489
     11  N7        -4.7070   -3.7770    2.1640 N.2     1  DA1        -0.1925
     12  C5        -4.8240   -2.4790    1.6920 C.2     1  DA1         0.2564
     13  C6        -4.1930   -1.2780    2.0610 C.2     1  DA1         0.4395
     14  N6        -3.2830   -1.1890    3.0330 N.2     1  DA1         0.0911
     15  N1        -4.5360   -0.1590    1.3880 N.2     1  DA1         0.0675
     16  C2        -5.4490   -0.2490    0.4140 C.1     1  DA1         0.3591
     17  N3        -6.1100   -1.3180   -0.0220 N.2     1  DA1         0.0562
     18  C4        -5.7470   -2.4140    0.6650 C.2     1  DA1         0.3396
     19  P         -5.8620   -5.6240   -4.4530 P.3     2  DT2         0.2141
     20  OP1       -5.7240   -6.0060   -5.8820 O.2     2  DT2        -0.5172
     21  OP2       -4.6560   -5.2110   -3.6820 O.3     2  DT2        -0.4373
     22  O5'       -6.8860   -4.4080   -4.3860 O.3     2  DT2        -0.3114
     23  C5'       -8.0130   -4.3590   -5.2440 C.3     2  DT2         0.1811
     24  C4'       -8.7080   -3.0320   -5.0930 C.3     2  DT2         0.1744
     25  O4'       -9.1820   -2.8930   -3.7260 O.3     2  DT2        -0.3348
     26  C3'       -7.8060   -1.8270   -5.2780 C.3     2  DT2         0.1555
     27  O3'       -7.6900   -1.4970   -6.6550 O.3     2  DT2        -0.3139
     28  C2'       -8.5830   -0.7470   -4.5420 C.3     2  DT2         0.0835
     29  C1'       -9.1200   -1.5270   -3.3380 C.3     2  DT2         0.1979
     30  N1        -8.3640   -1.7530   -1.7810 N.am    2  DT2        -0.2409
     31  C2        -8.6880   -0.5430   -1.1970 C.2     2  DT2         0.3314
     32  O2        -8.9090    0.4670   -1.8410 O.2     2  DT2        -0.2503
     33  N3        -8.7430   -0.5560    0.1760 N.am    2  DT2        -0.1273
     34  C4        -8.5120   -1.6340    1.0050 C.2     2  DT2         0.2544
     35  O4        -8.6000   -1.4910    2.2220 O.2     2  DT2        -0.2727
     36  C5        -8.1800   -2.8540    0.3230 C.3     2  DT2         0.1434
     37  C6        -8.1200   -2.8690   -1.0110 C.3     2  DT2         0.1004
     38  C7        -7.9100   -4.0840    1.1380 C.3     2  DT2         0.2092
     39  P         -6.0950   -1.6620   -7.4810 P.3     3  DA3         0.2141
     40  OP1       -5.8010   -2.7710   -8.4180 O.2     3  DA3        -0.5172
     41  OP2       -5.5170   -1.6740   -6.1160 O.3     3  DA3        -0.4373
     42  O5'       -5.6890   -0.2900   -8.2000 O.3     3  DA3        -0.3114
     43  C5'       -6.6920    0.5720   -8.7270 C.3     3  DA3         0.1811
     44  C4'       -6.6030    1.9630   -8.1220 C.3     3  DA3         0.1746
     45  O4'       -7.4360    2.0580   -6.9350 O.3     3  DA3        -0.3327
     46  C3'       -5.2500    2.3880   -7.5750 C.3     3  DA3         0.1558
     47  O3'       -4.3000    2.6580   -8.6010 O.3     3  DA3        -0.3138
     48  C2'       -5.7040    3.6430   -6.8420 C.3     3  DA3         0.0865
     49  C1'       -6.9130    3.0780   -6.0990 C.3     3  DA3         0.2094
     50  N9        -6.4950    2.4910   -4.8690 N.ar    3  DA3        -0.2714
     51  C8        -6.5950    1.1360   -4.6900 C.ar    3  DA3         0.1815
     52  N7        -6.4550    0.7550   -3.4420 N.ar    3  DA3        -0.2191
     53  C5        -6.2480    1.9400   -2.7550 C.ar    3  DA3         0.1537
     54  C6        -6.0310    2.2190   -1.3940 C.ar    3  DA3         0.1995
     55  N6        -5.9870    1.2810   -0.4450 N.2     3  DA3        -0.1141
     56  N1        -5.8600    3.5100   -1.0390 N.ar    3  DA3        -0.2024
     57  C2        -5.9060    4.4500   -1.9900 C.ar    3  DA3         0.2017
     58  N3        -6.1030    4.3120   -3.2990 N.ar    3  DA3        -0.2048
     59  C4        -6.2680    3.0180   -3.6200 C.ar    3  DA3         0.1693
     60  P         -2.8630    2.1650   -8.4290 P.3     4  DC4         0.2141
     61  OP1       -2.2640    2.5630   -9.7250 O.2     4  DC4        -0.5172
     62  OP2       -2.6280    0.7940   -7.9020 O.3     4  DC4        -0.4373
     63  O5'       -2.4220    3.1670   -7.2680 O.3     4  DC4        -0.3114
     64  C5'       -2.4470    4.5740   -7.4720 C.3     4  DC4         0.1811
     65  C4'       -2.3680    5.3070   -6.1530 C.3     4  DC4         0.1746
     66  O4'       -3.3770    4.7750   -5.2670 O.3     4  DC4        -0.3327
     67  C3'       -1.0910    5.2380   -5.3290 C.3     4  DC4         0.1558
     68  O3'       -0.1200    6.2010   -5.7230 O.3     4  DC4        -0.3138
     69  C2'       -1.5860    5.6030   -3.9440 C.3     4  DC4         0.0866
     70  C1'       -2.9740    4.9710   -3.9290 C.3     4  DC4         0.2106
     71  N1        -2.9690    3.5760   -3.2500 N.ar    4  DC4        -0.2556
     72  C2        -2.9820    3.5880   -1.8510 C.ar    4  DC4         0.3531
     73  O2        -2.9930    4.6820   -1.2620 O.2     4  DC4        -0.2443
     74  N3        -2.9810    2.4100   -1.1820 N.ar    4  DC4        -0.1739
     75  C4        -2.9680    1.2600   -1.8560 C.ar    4  DC4         0.1759
     76  N4        -2.9680    0.1240   -1.1530 N.pl3   4  DC4        -0.1070
     77  C5        -2.9550    1.2270   -3.2740 C.ar    4  DC4         0.0566
     78  C6        -2.9550    2.3920   -3.9310 C.ar    4  DC4         0.0849
     79  P          1.3940    6.1080   -5.3190 P.3     5  DC5         0.2141
     80  OP1        2.3660    7.2130   -5.4570 O.3     5  DC5        -0.4373
     81  OP2        1.8590    4.7120   -5.5360 O.2     5  DC5        -0.5172
     82  O5'        0.7720    6.1630   -3.8500 O.3     5  DC5        -0.3114
     83  C5'        0.8610    7.3450   -3.0590 C.3     5  DC5         0.1811
     84  C4'        1.4650    7.0220   -1.7220 C.3     5  DC5         0.1746
     85  O4'        0.5520    6.2350   -0.9160 O.3     5  DC5        -0.3327
     86  C3'        2.7120    6.1630   -1.8380 C.3     5  DC5         0.1558
     87  O3'        3.8090    7.0170   -2.1020 O.3     5  DC5        -0.3138
     88  C2'        2.7520    5.4380   -0.4980 C.3     5  DC5         0.0866
     89  C1'        1.2680    5.2360   -0.2060 C.3     5  DC5         0.2106
     90  N1         0.7790    3.9530   -0.5680 N.ar    5  DC5        -0.2556
     91  C2         0.6370    2.9590    0.4080 C.ar    5  DC5         0.3531
     92  O2         0.7580    3.2740    1.6040 O.2     5  DC5        -0.2443
     93  N3         0.3740    1.6880    0.0210 N.ar    5  DC5        -0.1739
     94  C4         0.2540    1.3960   -1.2740 C.ar    5  DC5         0.1759
     95  N4        -0.0050    0.1300   -1.6080 N.pl3   5  DC5        -0.1070
     96  C5         0.3940    2.3880   -2.2780 C.ar    5  DC5         0.0566
     97  C6         0.6540    3.6420   -1.8920 C.ar    5  DC5         0.0849
     98  P          5.3390    6.3320   -2.5590 P.3     6  DA6         0.2141
     99  OP1        6.4550    7.1980   -3.0060 O.3     6  DA6        -0.4373
    100  OP2        4.4400    5.6760   -3.5380 O.2     6  DA6        -0.5172
    101  O5'        5.9230    5.1390   -1.6620 O.3     6  DA6        -0.3114
    102  C5'        6.7930    5.4530   -0.5840 C.3     6  DA6         0.1811
    103  C4'        6.7650    4.4090    0.5080 C.3     6  DA6         0.1746
    104  O4'        5.4020    4.0100    0.8070 O.3     6  DA6        -0.3327
    105  C3'        7.4550    3.0920    0.2040 C.3     6  DA6         0.1558
    106  O3'        8.8590    3.1620    0.3390 O.3     6  DA6        -0.3138
    107  C2'        6.8100    2.1430    1.2020 C.3     6  DA6         0.0865
    108  C1'        5.3720    2.6530    1.2100 C.3     6  DA6         0.2094
    109  N9         4.6170    1.8540    0.2570 N.ar    6  DA6        -0.2714
    110  C8         4.0800    2.3390   -0.9070 C.ar    6  DA6         0.1815
    111  N7         3.3260    1.4730   -1.5420 N.ar    6  DA6        -0.2193
    112  C5         3.3710    0.3430   -0.7410 C.ar    6  DA6         0.1518
    113  C6         2.7770   -0.9260   -0.8610 C.ar    6  DA6         0.1919
    114  N6         1.9880   -1.2790   -1.8780 N.pl3   6  DA6        -0.1054
    115  N1         3.0250   -1.8280    0.1120 N.ar    6  DA6        -0.2040
    116  C2         3.8160   -1.4730    1.1310 C.ar    6  DA6         0.2016
    117  N3         4.4290   -0.3130    1.3540 N.ar    6  DA6        -0.2048
    118  C4         4.1630    0.5620    0.3700 C.ar    6  DA6         0.1691
    119  P          9.7530    2.3740   -0.7380 P.3     7  DG7         0.2141
    120  OP1       11.1710    2.4690   -0.3350 O.3     7  DG7        -0.4373
    121  OP2        9.3720    2.3150   -2.1640 O.2     7  DG7        -0.5172
    122  O5'        9.1330    1.1260    0.0080 O.3     7  DG7        -0.3114
    123  C5'        9.9270    0.3890    0.8770 C.3     7  DG7         0.1811
    124  C4'        9.3750   -1.0130    0.8650 C.3     7  DG7         0.1746
    125  O4'        7.9300   -1.0220    0.8010 O.3     7  DG7        -0.3327
    126  C3'        9.7400   -1.7880   -0.3650 C.3     7  DG7         0.1558
    127  O3'       11.0830   -2.0830   -0.2040 O.3     7  DG7        -0.3138
    128  C2'        8.8680   -2.9570    0.0150 C.3     7  DG7         0.0865
    129  C1'        7.5370   -2.2890    0.3310 C.3     7  DG7         0.2094
    130  N9         6.6670   -2.0030   -0.8660 N.ar    7  DG7        -0.2713
    131  C8         6.5560   -0.8370   -1.5830 C.ar    7  DG7         0.1816
    132  N7         5.7960   -0.9510   -2.6380 N.ar    7  DG7        -0.2173
    133  C5         5.3780   -2.2690   -2.6180 C.ar    7  DG7         0.1748
    134  C6         4.5360   -2.9840   -3.5090 C.ar    7  DG7         0.3023
    135  O6         3.9740   -2.5700   -4.5300 O.2     7  DG7        -0.2633
    136  N1         4.3710   -4.3100   -3.1180 N.ar    7  DG7        -0.1709
    137  C2         4.9450   -4.8770   -2.0050 C.ar    7  DG7         0.2606
    138  N2         4.6680   -6.1700   -1.7910 N.pl3   7  DG7        -0.0859
    139  N3         5.7300   -4.2250   -1.1690 N.ar    7  DG7        -0.1918
    140  C4         5.9050   -2.9360   -1.5300 C.ar    7  DG7         0.1722
    141  P         11.8490   -2.9270   -1.4070 P.3     8  DC8         0.2141
    142  OP1       13.3090   -3.1010   -1.2250 O.3     8  DC8        -0.4373
    143  OP2       11.3050   -2.0830   -2.4950 O.2     8  DC8        -0.5172
    144  O5'       11.1970   -4.3580   -1.7040 O.3     8  DC8        -0.3114
    145  C5'       11.6980   -5.5600   -1.1370 C.3     8  DC8         0.1811
    146  C4'       11.0160   -6.7570   -1.7440 C.3     8  DC8         0.1746
    147  O4'        9.5740   -6.6090   -1.6430 O.3     8  DC8        -0.3327
    148  C3'       11.2480   -6.9470   -3.2320 C.3     8  DC8         0.1558
    149  O3'       12.5000   -7.5400   -3.5200 O.3     8  DC8        -0.3138
    150  C2'       10.0520   -7.7930   -3.6360 C.3     8  DC8         0.0866
    151  C1'        8.9530   -7.1520   -2.7900 C.3     8  DC8         0.2106
    152  N1         8.3010   -6.0510   -3.6290 N.ar    8  DC8        -0.2556
    153  C2         7.3580   -6.3700   -4.6130 C.ar    8  DC8         0.3531
    154  O2         7.1840   -7.5640   -4.9100 O.2     8  DC8        -0.2443
    155  N3         6.6660   -5.3710   -5.2110 N.ar    8  DC8        -0.1739
    156  C4         6.8860   -4.1040   -4.8610 C.ar    8  DC8         0.1759
    157  N4         6.1800   -3.1530   -5.4780 N.pl3   8  DC8        -0.1070
    158  C5         7.8370   -3.7600   -3.8660 C.ar    8  DC8         0.0566
    159  C6         8.5190   -4.7490   -3.2780 C.ar    8  DC8         0.0849
    160  P         13.2440   -6.8150   -4.2280 P.3     9  DT9         0.2141
    161  OP1       14.5560   -7.4760   -4.0630 O.3     9  DT9        -0.4373
    162  OP2       13.1770   -5.3640   -4.5380 O.2     9  DT9        -0.5172
    163  O5'       12.3690   -7.6110   -5.2970 O.3     9  DT9        -0.3114
    164  C5'       12.8260   -8.8570   -5.6470 C.3     9  DT9         0.1811
    165  C4'       11.8860   -9.4490   -6.6630 C.3     9  DT9         0.1746
    166  O4'       10.6420   -8.8080   -6.4330 O.3     9  DT9        -0.3327
    167  C3'       12.1190   -9.0360   -8.0740 C.3     9  DT9         0.1558
    168  O3'       13.0450   -9.8760   -8.6500 O.3     9  DT9        -0.3138
    169  C2'       10.7550   -9.2220   -8.6730 C.3     9  DT9         0.0866
    170  C1'        9.8760   -8.7000   -7.6010 C.3     9  DT9         0.2106
    171  N1         9.5720   -7.3180   -7.7540 N.ar    9  DT9        -0.2559
    172  C2         8.7000   -6.8280   -8.7080 C.ar    9  DT9         0.3545
    173  O2         8.2250   -7.5200   -9.5910 O.2     9  DT9        -0.2443
    174  N3         8.4010   -5.4920   -8.5910 N.ar    9  DT9        -0.1533
    175  C4         8.8770   -4.6160   -7.6380 C.ar    9  DT9         0.2804
    176  O4         8.5170   -3.4420   -7.6620 O.2     9  DT9        -0.2654
    177  C5         9.7780   -5.2000   -6.6840 C.ar    9  DT9         0.0534
    178  C6        10.0850   -6.4960   -6.7740 C.ar    9  DT9         0.0824
    179  C7        10.3510   -4.3280   -5.6070 C.3     9  DT9         0.0377
    180  P         14.1320   -8.9960   -9.3850 P.3    10  DT10        0.2141
    181  OP1       15.3260   -9.7740   -9.7960 O.2    10  DT10       -0.5172
    182  OP2       14.3030   -7.6990   -8.6530 O.3    10  DT10       -0.4373
    183  O5'       13.2240   -8.7510  -10.6770 O.3    10  DT10       -0.3114
    184  C5'       12.8550   -9.8280  -11.5360 C.3    10  DT10        0.1811
    185  C4'       11.6770   -9.4530  -12.4300 C.3    10  DT10        0.1746
    186  O4'       10.5670   -8.9620  -11.6280 O.3    10  DT10       -0.3327
    187  C3'       11.8710   -8.3650  -13.4790 C.3    10  DT10        0.1558
    188  O3'       12.5190   -8.8850  -14.6430 O.3    10  DT10       -0.3138
    189  C2'       10.4270   -7.9760  -13.7880 C.3    10  DT10        0.0866
    190  C1'        9.7600   -8.1090  -12.4230 C.3    10  DT10        0.2106
    191  N1         9.6490   -6.8060  -11.7710 N.ar   10  DT10       -0.2559
    192  C2         8.5640   -5.9810  -11.9970 C.ar   10  DT10        0.3545
    193  O2         7.6820   -6.2480  -12.7940 O.2    10  DT10       -0.2443
    194  N3         8.5470   -4.8260  -11.2540 N.ar   10  DT10       -0.1533
    195  C4         9.4860   -4.4220  -10.3280 C.ar   10  DT10        0.2804
    196  O4         9.3330   -3.3550   -9.7380 O.2    10  DT10       -0.2654
    197  C5        10.5830   -5.3310  -10.1500 C.ar   10  DT10        0.0534
    198  C6        10.6240   -6.4620  -10.8600 C.ar   10  DT10        0.0824
    199  C7        11.6580   -4.9800   -9.1640 C.3    10  DT10        0.0377
    200  P         13.4650   -8.0990  -15.5040 P.3    11  DA11        0.2141
    201  OP1       13.5590   -9.2530  -16.4370 O.2    11  DA11       -0.5172
    202  OP2       14.6410   -7.7360  -14.6690 O.3    11  DA11       -0.4373
    203  O5'       13.0420   -6.8120  -16.3440 O.3    11  DA11       -0.3114
    204  C5'       11.7350   -6.7040  -16.9030 C.3    11  DA11        0.1811
    205  C4'       11.4520   -5.2750  -17.3020 C.3    11  DA11        0.1746
    206  O4'       11.5210   -4.4190  -16.1310 O.3    11  DA11       -0.3327
    207  C3'       12.4480   -4.6490  -18.2620 C.3    11  DA11        0.1558
    208  O3'       12.1540   -5.0070  -19.6020 O.3    11  DA11       -0.3138
    209  C2'       12.2310   -3.1620  -18.0180 C.3    11  DA11        0.0865
    210  C1'       12.0120   -3.1390  -16.5040 C.3    11  DA11        0.2094
    211  N9        13.2070   -2.9260  -15.8060 N.ar   11  DA11       -0.2714
    212  C8        13.9620   -3.9560  -15.3080 C.ar   11  DA11        0.1815
    213  N7        15.0520   -3.5640  -14.6920 N.ar   11  DA11       -0.2193
    214  C5        15.0110   -2.1820  -14.7930 C.ar   11  DA11        0.1518
    215  C6        15.8810   -1.1740  -14.3400 C.ar   11  DA11        0.1919
    216  N6        17.0070   -1.4180  -13.6660 N.pl3  11  DA11       -0.1054
    217  N1        15.5480    0.1070  -14.6070 N.ar   11  DA11       -0.2040
    218  C2        14.4190    0.3500  -15.2820 C.ar   11  DA11        0.2016
    219  N3        13.5220   -0.5110  -15.7580 N.ar   11  DA11       -0.2048
    220  C4        13.8820   -1.7750  -15.4770 C.ar   11  DA11        0.1691
    221  P         13.2340   -4.7330  -20.7050 P.3    12  DT12        0.2141
    222  OP1       12.4800   -5.3320  -21.8370 O.2    12  DT12       -0.5172
    223  OP2       14.5050   -5.3670  -20.2620 O.3    12  DT12       -0.4373
    224  O5'       13.5150   -3.1990  -21.0230 O.3    12  DT12       -0.3114
    225  C5'       12.4940   -2.3640  -21.5900 C.3    12  DT12        0.1811
    226  C4'       12.6630   -0.9400  -21.1160 C.3    12  DT12        0.1746
    227  O4'       12.7200   -0.9330  -19.6680 O.3    12  DT12       -0.3327
    228  C3'       13.9570   -0.2520  -21.5060 C.3    12  DT12        0.1558
    229  O3'       13.9080    0.2720  -22.8180 O.3    12  DT12       -0.3138
    230  C2'       14.0490    0.8560  -20.4740 C.3    12  DT12        0.0866
    231  C1'       13.5530    0.1310  -19.2280 C.3    12  DT12        0.2106
    232  N1        14.6890   -0.3990  -18.3980 N.ar   12  DT12       -0.2559
    233  C2        15.2880    0.5500  -17.5910 C.ar   12  DT12        0.3545
    234  O2        14.8760    1.6920  -17.4900 O.2    12  DT12       -0.2443
    235  N3        16.3950    0.1120  -16.9040 N.ar   12  DT12       -0.1533
    236  C4        16.9490   -1.1500  -16.9410 C.ar   12  DT12        0.2804
    237  O4        17.9460   -1.3930  -16.2650 O.2    12  DT12       -0.2654
    238  C5        16.2710   -2.0780  -17.8020 C.ar   12  DT12        0.0534
    239  C6        15.1920   -1.6790  -18.4820 C.ar   12  DT12        0.0824
    240  C7        16.7990   -3.4780  -17.9110 C.3    12  DT12        0.0377
    241  P         14.9680    0.5180  -23.2900 P.3    13  DT13        0.2141
    242  OP1       14.8410    0.3290  -24.7560 O.2    13  DT13       -0.5172
    243  OP2       15.8270   -0.3870  -22.5020 O.3    13  DT13       -0.4373
    244  O5'       15.5080    1.9790  -22.9130 O.3    13  DT13       -0.3114
    245  C5'       14.7820    3.1170  -23.3540 C.3    13  DT13        0.1811
    246  C4'       14.9930    4.3260  -22.4760 C.3    13  DT13        0.1746
    247  O4'       14.8650    3.9680  -21.0770 O.3    13  DT13       -0.3327
    248  C3'       16.3500    5.0040  -22.5660 C.3    13  DT13        0.1558
    249  O3'       16.4530    5.8380  -23.7100 O.3    13  DT13       -0.3138
    250  C2'       16.4130    5.7610  -21.2400 C.3    13  DT13        0.0866
    251  C1'       15.6870    4.8060  -20.2950 C.3    13  DT13        0.2106
    252  N1        16.5830    3.9360  -19.4870 N.ar   13  DT13       -0.2559
    253  C2        16.9530    4.3850  -18.2330 C.ar   13  DT13        0.3545
    254  O2        16.5690    5.4430  -17.7670 O.2    13  DT13       -0.2443
    255  N3        17.7960    3.5480  -17.5420 N.ar   13  DT13       -0.1533
    256  C4        18.2930    2.3340  -17.9680 C.ar   13  DT13        0.2804
    257  O4        19.0410    1.6950  -17.2320 O.2    13  DT13       -0.2654
    258  C5        17.8630    1.9380  -19.2800 C.ar   13  DT13        0.0534
    259  C6        17.0450    2.7320  -19.9740 C.ar   13  DT13        0.0824
    260  C7        18.3510    0.6320  -19.8340 C.3    13  DT13        0.0377
    261  P         17.8120    6.2170  -24.4400 P.3    14  DC14        0.2141
    262  OP1       17.7640    6.8260  -25.8030 O.2    14  DC14       -0.5172
    263  OP2       18.4220    4.8820  -24.2610 O.3    14  DC14       -0.4373
    264  O5'       18.5700    7.2180  -23.4560 O.3    14  DC14       -0.3114
    265  C5'       18.2560    8.5970  -23.4680 C.3    14  DC14        0.1811
    266  C4'       18.4900    9.2110  -22.1120 C.3    14  DC14        0.1746
    267  O4'       18.0370    8.3110  -21.0720 O.3    14  DC14       -0.3327
    268  C3'       19.9230    9.4880  -21.7090 C.3    14  DC14        0.1558
    269  O3'       20.4060   10.6720  -22.2750 O.3    14  DC14       -0.3138
    270  C2'       19.8170    9.6210  -20.1980 C.3    14  DC14        0.0866
    271  C1'       18.7890    8.5450  -19.8790 C.3    14  DC14        0.2106
    272  N1        19.4640    7.3640  -19.5180 N.ar   14  DC14       -0.2556
    273  C2        20.1340    7.3020  -18.2910 C.ar   14  DC14        0.3531
    274  O2        20.1830    8.3230  -17.5840 O.2    14  DC14       -0.2443
    275  N3        20.7090    6.1360  -17.9120 N.ar   14  DC14       -0.1737
    276  C4        20.6330    5.0650  -18.7040 C.ar   14  DC14        0.1782
    277  N4        21.2150    3.9380  -18.2880 N.pl3  14  DC14       -0.0961
    278  C5        19.9580    5.1070  -19.9510 C.ar   14  DC14        0.0568
    279  C6        19.3920    6.2610  -20.3220 C.ar   14  DC14        0.0849
    280  P         21.8010   10.6460  -22.8110 P.3    15  DA15        0.2141
    281  OP1       22.3960   11.7480  -23.6080 O.2    15  DA15       -0.5172
    282  OP2       21.8980    9.2390  -23.3050 O.3    15  DA15       -0.4373
    283  O5'       22.3750   10.8000  -21.3080 O.3    15  DA15       -0.3114
    284  C5'       22.3360   12.1010  -20.7110 C.3    15  DA15        0.1811
    285  C4'       22.7360   12.1100  -19.2490 C.3    15  DA15        0.1746
    286  O4'       21.9950   11.0650  -18.6180 O.3    15  DA15       -0.3327
    287  C3'       24.1460   11.6450  -19.1210 C.3    15  DA15        0.1558
    288  O3'       25.0860   12.6870  -19.3690 O.3    15  DA15       -0.3138
    289  C2'       24.2060   10.9920  -17.7580 C.3    15  DA15        0.0865
    290  C1'       22.8400   10.3390  -17.7000 C.3    15  DA15        0.2094
    291  N9        22.7700    8.9730  -18.0530 N.ar   15  DA15       -0.2714
    292  C8        22.4040    8.4660  -19.2720 C.ar   15  DA15        0.1815
    293  N7        22.3940    7.1540  -19.3180 N.ar   15  DA15       -0.2191
    294  C5        22.7800    6.7750  -18.0420 C.ar   15  DA15        0.1543
    295  C6        22.9640    5.5160  -17.4440 C.ar   15  DA15        0.2036
    296  N6        22.7720    4.3590  -18.0830 N.2    15  DA15       -0.1362
    297  N1        23.3560    5.4870  -16.1520 N.ar   15  DA15       -0.2018
    298  C2        23.5460    6.6460  -15.5130 C.ar   15  DA15        0.2017
    299  N3        23.4060    7.8890  -15.9660 N.ar   15  DA15       -0.2048
    300  C4        23.0170    7.8840  -17.2520 C.ar   15  DA15        0.1693
    301  P         26.6510   12.1950  -19.7780 P.3    16  DA16        0.2141
    302  OP1       27.0440   13.6210  -19.7630 O.3    16  DA16       -0.4373
    303  OP2       27.0810   11.2850  -20.8570 O.2    16  DA16       -0.5172
    304  O5'       27.1550   11.4650  -18.4550 O.3    16  DA16       -0.3114
    305  C5'       27.7110   12.2110  -17.3720 C.3    16  DA16        0.1811
    306  C4'       27.8650   11.3560  -16.1310 C.3    16  DA16        0.1746
    307  O4'       26.6720   10.5470  -15.9160 O.3    16  DA16       -0.3327
    308  C3'       28.9900   10.3530  -16.2400 C.3    16  DA16        0.1558
    309  O3'       30.1590   11.0110  -15.8980 O.3    16  DA16       -0.3138
    310  C2'       28.5400    9.3660  -15.1830 C.3    16  DA16        0.0865
    311  C1'       27.0610    9.2610  -15.4820 C.3    16  DA16        0.2094
    312  N9        26.8420    8.1840  -16.4920 N.ar   16  DA16       -0.2714
    313  C8        26.5390    8.3190  -17.8210 C.ar   16  DA16        0.1815
    314  N7        26.3280    7.1780  -18.4340 N.ar   16  DA16       -0.2193
    315  C5        26.5050    6.2290  -17.4390 C.ar   16  DA16        0.1518
    316  C6        26.4210    4.8260  -17.4440 C.ar   16  DA16        0.1919
    317  N6        26.1230    4.1070  -18.5290 N.pl3  16  DA16       -0.1054
    318  N1        26.6570    4.1800  -16.2820 N.ar   16  DA16       -0.2040
    319  C2        26.9550    4.9010  -15.1960 C.ar   16  DA16        0.2016
    320  N3        27.0620    6.2210  -15.0660 N.ar   16  DA16       -0.2048
    321  C4        26.8240    6.8340  -16.2380 C.ar   16  DA16        0.1691
    322  P         31.4440   10.4920  -16.3920 P.3    17  DT17        0.2141
    323  OP1       32.5390   11.2760  -15.7590 O.3    17  DT17       -0.4373
    324  OP2       31.2500   10.5630  -17.8640 O.2    17  DT17       -0.5172
    325  O5'       31.6610    8.9660  -16.0000 O.3    17  DT17       -0.3114
    326  C5'       31.9740    8.5880  -14.6500 C.3    17  DT17        0.1811
    327  C4'       32.3430    7.1310  -14.6020 C.3    17  DT17        0.1746
    328  O4'       31.1580    6.3150  -14.8000 O.3    17  DT17       -0.3327
    329  C3'       33.2790    6.7060  -15.7170 C.3    17  DT17        0.1558
    330  O3'       34.6320    7.0050  -15.4390 O.3    17  DT17       -0.3138
    331  C2'       32.9940    5.2180  -15.8520 C.3    17  DT17        0.0866
    332  C1'       31.4890    5.1690  -15.5730 C.3    17  DT17        0.2106
    333  N1        30.7500    5.2040  -16.8690 N.ar   17  DT17       -0.2559
    334  C2        30.5940    4.0020  -17.5330 C.ar   17  DT17        0.3545
    335  O2        31.0330    2.9470  -17.1090 O.2    17  DT17       -0.2443
    336  N3        29.9040    4.0780  -18.7190 N.ar   17  DT17       -0.1533
    337  C4        29.3660    5.2100  -19.2940 C.ar   17  DT17        0.2804
    338  O4        28.7710    5.1200  -20.3650 O.2    17  DT17       -0.2654
    339  C5        29.5700    6.4180  -18.5450 C.ar   17  DT17        0.0534
    340  C6        30.2380    6.3730  -17.3890 C.ar   17  DT17        0.0824
    341  C7        29.0220    7.7040  -19.0890 C.3    17  DT17        0.0377
    342  P         35.5970    7.5360  -16.6750 P.3    18  DT18        0.2141
    343  OP1       36.7840    8.3490  -16.3240 O.3    18  DT18       -0.4373
    344  OP2       34.4350    8.1660  -17.3430 O.2    18  DT18       -0.5172
    345  O5'       36.0280    6.3580  -17.6720 O.3    18  DT18       -0.3114
    346  C5'       37.0160    5.4100  -17.2890 C.3    18  DT18        0.1811
    347  C4'       36.9030    4.1220  -18.0690 C.3    18  DT18        0.1746
    348  O4'       35.5570    3.5870  -17.9670 O.3    18  DT18       -0.3327
    349  C3'       37.1610    4.2140  -19.5650 C.3    18  DT18        0.1558
    350  O3'       38.5440    4.1860  -19.8800 O.3    18  DT18       -0.3138
    351  C2'       36.3970    3.0130  -20.1200 C.3    18  DT18        0.0866
    352  C1'       35.2130    2.9060  -19.1560 C.3    18  DT18        0.2106
    353  N1        33.9550    3.5500  -19.6440 N.ar   18  DT18       -0.2559
    354  C2        33.3060    2.8780  -20.6630 C.ar   18  DT18        0.3545
    355  O2        33.6330    1.7660  -21.0370 O.2    18  DT18       -0.2443
    356  N3        32.2570    3.5580  -21.2310 N.ar   18  DT18       -0.1533
    357  C4        31.8010    4.8150  -20.8920 C.ar   18  DT18        0.2804
    358  O4        30.8440    5.2940  -21.4940 O.2    18  DT18       -0.2654
    359  C5        32.5270    5.4480  -19.8270 C.ar   18  DT18        0.0534
    360  C6        33.5520    4.8090  -19.2560 C.ar   18  DT18        0.0824
    361  C7        32.1080    6.8190  -19.3850 C.3    18  DT18        0.0377
    362  P         39.3640    5.4530  -20.5610 P.3    19  DA19        0.2141
    363  OP1       40.8410    5.4930  -20.4640 O.3    19  DA19       -0.4373
    364  OP2       38.5980    6.7120  -20.6870 O.2    19  DA19       -0.5172
    365  O5'       38.9290    4.6050  -21.8520 O.3    19  DA19       -0.3114
    366  C5'       39.4030    3.2760  -22.0430 C.3    19  DA19        0.1811
    367  C4'       38.7060    2.5460  -23.1730 C.3    19  DA19        0.1746
    368  O4'       37.3420    2.1680  -22.8350 O.3    19  DA19       -0.3327
    369  C3'       38.5200    3.3270  -24.4580 C.3    19  DA19        0.1558
    370  O3'       39.7270    3.5300  -25.1670 O.3    19  DA19       -0.3138
    371  C2'       37.4730    2.4840  -25.1800 C.3    19  DA19        0.0865
    372  C1'       36.5460    2.1590  -24.0100 C.3    19  DA19        0.2094
    373  N9        35.5600    3.4210  -23.9300 N.ar   19  DA19       -0.2714
    374  C8        35.5310    4.4430  -23.0180 C.ar   19  DA19        0.1815
    375  N7        34.4300    5.1570  -23.0590 N.ar   19  DA19       -0.2193
    376  C5        33.6870    4.5640  -24.0670 C.ar   19  DA19        0.1518
    377  C6        32.4190    4.8510  -24.6020 C.ar   19  DA19        0.1919
    378  N6        31.6460    5.8520  -24.1730 N.pl3  19  DA19       -0.1054
    379  N1        31.9690    4.0660  -25.6030 N.ar   19  DA19       -0.2040
    380  C2        32.7440    3.0630  -26.0310 C.ar   19  DA19        0.2016
    381  N3        33.9510    2.6940  -25.6080 N.ar   19  DA19       -0.2048
    382  C4        34.3700    3.4940  -24.6140 C.ar   19  DA19        0.1691
    383  P         40.3030    4.9320  -25.1620 P.3    20  DA20        0.2141
    384  OP1       41.7180    4.9250  -25.6020 O.2    20  DA20       -0.5172
    385  OP2       39.8280    5.9720  -24.2230 O.3    20  DA20       -0.4373
    386  O5'       39.3720    4.9700  -26.4690 O.3    20  DA20       -0.3114
    387  C5'       39.7570    4.2970  -27.6660 C.3    20  DA20        0.1811
    388  C4'       38.6070    4.2510  -28.6570 C.3    20  DA20        0.1746
    389  O4'       37.3610    3.9470  -27.9870 O.3    20  DA20       -0.3327
    390  C3'       38.2900    5.5640  -29.3370 C.3    20  DA20        0.1558
    391  O3'       39.2160    5.7970  -30.3820 O.3    20  DA20       -0.3138
    392  C2'       36.8940    5.2770  -29.8800 C.3    20  DA20        0.0865
    393  C1'       36.2880    4.5350  -28.7040 C.3    20  DA20        0.2094
    394  N9        35.5280    5.3720  -27.8030 N.ar   20  DA20       -0.2714
    395  C8        35.9120    5.8050  -26.5610 C.ar   20  DA20        0.1815
    396  N7        34.9980    6.5150  -25.9430 N.ar   20  DA20       -0.2193
    397  C5        33.9430    6.5520  -26.8400 C.ar   20  DA20        0.1518
    398  C6        32.6710    7.1490  -26.7820 C.ar   20  DA20        0.1919
    399  N6        32.2320    7.8520  -25.7350 N.pl3  20  DA20       -0.1054
    400  N1        31.8570    6.9960  -27.8480 N.ar   20  DA20       -0.2040
    401  C2        32.2980    6.2900  -28.8960 C.ar   20  DA20        0.2016
    402  N3        33.4690    5.6820  -29.0670 N.ar   20  DA20       -0.2048
    403  C4        34.2550    5.8530  -27.9910 C.ar   20  DA20        0.1691
    404  P         39.6040    7.2840  -30.7060 P.3    21  DT21        0.2141
    405  OP1       40.7680    7.1380  -31.6060 O.2    21  DT21       -0.5172
    406  OP2       39.7490    7.9010  -29.3650 O.3    21  DT21       -0.4373
    407  O5'       38.4590    8.1130  -31.4670 O.3    21  DT21       -0.3114
    408  C5'       38.0680    7.7900  -32.7990 C.3    21  DT21        0.1811
    409  C4'       36.6030    8.1050  -33.0570 C.3    21  DT21        0.1746
    410  O4'       35.7810    7.5040  -32.0240 O.3    21  DT21       -0.3327
    411  C3'       36.2080    9.5760  -33.0080 C.3    21  DT21        0.1558
    412  O3'       36.5130   10.2440  -34.2250 O.3    21  DT21       -0.3138
    413  C2'       34.7040    9.4120  -32.7980 C.3    21  DT21        0.0866
    414  C1'       34.6470    8.3010  -31.7520 C.3    21  DT21        0.2106
    415  N1        34.7160    8.8490  -30.3390 N.ar   21  DT21       -0.2559
    416  C2        33.6050    9.4940  -29.8300 C.ar   21  DT21        0.3545
    417  O2        32.5920    9.6850  -30.4790 O.2    21  DT21       -0.2443
    418  N3        33.7220    9.9130  -28.5270 N.ar   21  DT21       -0.1533
    419  C4        34.8150    9.7550  -27.7000 C.ar   21  DT21        0.2804
    420  O4        34.7710   10.1850  -26.5500 O.2    21  DT21       -0.2654
    421  C5        35.9290    9.0770  -28.3010 C.ar   21  DT21        0.0534
    422  C6        35.8410    8.6590  -29.5670 C.ar   21  DT21        0.0824
    423  C7        37.1660    8.8570  -27.4820 C.3    21  DT21        0.0377
    424  P         37.0320   11.6340  -34.2060 P.3    22  DC22        0.2141
    425  OP1       37.2620   12.1690  -35.5790 O.2    22  DC22       -0.5172
    426  OP2       38.1030   11.7420  -33.1840 O.3    22  DC22       -0.4373
    427  O5'       35.7000   12.2980  -33.6340 O.3    22  DC22       -0.3114
    428  C5'       34.5180   12.4500  -34.4590 C.3    22  DC22        0.1812
    429  C4'       33.4300   13.1910  -33.6990 C.3    22  DC22        0.1775
    430  O4'       33.1690   12.4850  -32.4600 O.3    22  DC22       -0.3326
    431  C3'       33.7550   14.6180  -33.2720 C.3    22  DC22        0.1864
    432  O3'       33.4210   15.5600  -34.2970 O.3    22  DC22       -0.2133
    433  C2'       32.8890   14.8070  -32.0310 C.3    22  DC22        0.0895
    434  C1'       32.9040   13.4070  -31.4190 C.3    22  DC22        0.2107
    435  N1        33.9100   13.2000  -30.3930 N.ar   22  DC22       -0.2556
    436  C2        33.5640   13.7580  -29.1570 C.ar   22  DC22        0.3531
    437  O2        32.4100   14.1920  -29.0000 O.2    22  DC22       -0.2443
    438  N3        34.4930   13.8090  -28.1730 N.ar   22  DC22       -0.1739
    439  C4        35.7200   13.3310  -28.3880 C.ar   22  DC22        0.1759
    440  N4        36.6020   13.4030  -27.3880 N.pl3  22  DC22       -0.1070
    441  C5        36.0900   12.7620  -29.6330 C.ar   22  DC22        0.0566
    442  C6        35.1700   12.7130  -30.6020 C.ar   22  DC22        0.0849
    443  P         34.3580   17.0810  -34.4460 P.3    23  DG23        0.3939
    444  OP1       33.3890   16.7970  -35.5310 O.3    23  DG23       -0.1496
    445  OP2       35.5610   17.9080  -34.7300 O.3    23  DG23       -0.1425
    446  O5'       33.5690   17.7480  -33.2400 O.3    23  DG23       -0.2926
    447  C5'       34.2790   18.2920  -32.1240 C.3    23  DG23        0.1828
    448  C4'       33.4040   19.2700  -31.3980 C.3    23  DG23        0.1747
    449  O4'       32.9710   20.2810  -32.3380 O.3    23  DG23       -0.3327
    450  C3'       32.1180   18.6820  -30.8500 C.3    23  DG23        0.1558
    451  O3'       32.3670   18.1450  -29.5630 O.3    23  DG23       -0.3138
    452  C2'       31.2120   19.9020  -30.7920 C.3    23  DG23        0.0865
    453  C1'       31.6270   20.6390  -32.0680 C.3    23  DG23        0.2094
    454  N9        30.8110   20.3320  -33.2020 N.ar   23  DG23       -0.2713
    455  C8        31.1270   19.4700  -34.2240 C.ar   23  DG23        0.1816
    456  N7        30.1630   19.3250  -35.0920 N.ar   23  DG23       -0.2173
    457  C5        29.1500   20.1380  -34.6190 C.ar   23  DG23        0.1748
    458  C6        27.8540   20.3930  -35.1350 C.ar   23  DG23        0.3023
    459  O6        27.3310   19.9290  -36.1560 O.2    23  DG23       -0.2633
    460  N1        27.1430   21.2860  -34.3390 N.ar   23  DG23       -0.1709
    461  C2        27.6210   21.8630  -33.1870 C.ar   23  DG23        0.2606
    462  N2        26.7880   22.7010  -32.5560 N.pl3  23  DG23       -0.0859
    463  N3        28.8230   21.6350  -32.6950 N.ar   23  DG23       -0.1918
    464  C4        29.5310   20.7700  -33.4510 C.ar   23  DG23        0.1722
    465  P         31.2930   16.8290  -28.8720 P.3    24  DC24        0.2141
    466  OP1       31.9290   16.7280  -27.5320 O.3    24  DC24       -0.4373
    467  OP2       31.2030   15.6230  -29.7360 O.2    24  DC24       -0.5172
    468  O5'       29.8270   17.4290  -28.6870 O.3    24  DC24       -0.3114
    469  C5'       29.5950   18.5310  -27.8120 C.3    24  DC24        0.1811
    470  C4'       28.1770   19.0380  -27.9600 C.3    24  DC24        0.1746
    471  O4'       27.9780   19.5310  -29.3120 O.3    24  DC24       -0.3327
    472  C3'       27.0700   18.0110  -27.7880 C.3    24  DC24        0.1558
    473  O3'       26.7460   17.7990  -26.4200 O.3    24  DC24       -0.3138
    474  C2'       25.9150   18.6810  -28.5110 C.3    24  DC24        0.0866
    475  C1'       26.6360   19.2940  -29.7120 C.3    24  DC24        0.2106
    476  N1        26.6940   18.6420  -30.8780 N.ar   24  DC24       -0.2556
    477  C2        25.5780   18.6700  -31.7230 C.ar   24  DC24        0.3531
    478  O2        24.6080   19.3790  -31.4080 O.2    24  DC24       -0.2443
    479  N3        25.5890   17.9250  -32.8540 N.ar   24  DC24       -0.1739
    480  C4        26.6530   17.1780  -33.1500 C.ar   24  DC24        0.1759
    481  N4        26.6180   16.4600  -34.2760 N.pl3  24  DC24       -0.1070
    482  C5        27.7930   17.1360  -32.3070 C.ar   24  DC24        0.0566
    483  C6        27.7790   17.8730  -31.1910 C.ar   24  DC24        0.0849
    484  P         25.6730   16.5290  -26.0320 P.3    25  DA25        0.2141
    485  OP1       24.4520   17.0770  -25.4390 O.2    25  DA25       -0.5172
    486  OP2       26.7110   15.8930  -25.1960 O.3    25  DA25       -0.4373
    487  O5'       25.3040   15.4610  -27.1640 O.3    25  DA25       -0.3114
    488  C5'       24.7700   15.7560  -28.4600 C.3    25  DA25        0.1811
    489  C4'       25.0280   14.5500  -29.3430 C.3    25  DA25        0.1746
    490  O4'       26.4400   14.4630  -29.7130 O.3    25  DA25       -0.3327
    491  C3'       24.7250   13.2650  -28.5880 C.3    25  DA25        0.1558
    492  O3'       24.2430   12.2890  -29.4370 O.3    25  DA25       -0.3138
    493  C2'       26.1020   12.9110  -28.0430 C.3    25  DA25        0.0865
    494  C1'       27.0080   13.2560  -29.2220 C.3    25  DA25        0.2094
    495  N9        28.2260   13.5730  -28.7400 N.ar   25  DA25       -0.2714
    496  C8        28.3540   14.3140  -27.5940 C.ar   25  DA25        0.1815
    497  N7        29.4240   14.0230  -26.8930 N.ar   25  DA25       -0.2193
    498  C5        30.0400   13.0220  -27.6270 C.ar   25  DA25        0.1518
    499  C6        31.2210   12.2860  -27.4190 C.ar   25  DA25        0.1919
    500  N6        32.0230   12.4570  -26.3660 N.pl3  25  DA25       -0.1054
    501  N1        31.5510   11.3590  -28.3430 N.ar   25  DA25       -0.2040
    502  C2        30.7480   11.1900  -29.3990 C.ar   25  DA25        0.2016
    503  N3        29.6150   11.8190  -29.7040 N.ar   25  DA25       -0.2048
    504  C4        29.3140   12.7330  -28.7660 C.ar   25  DA25        0.1691
    505  P         22.9600   11.1570  -28.6680 P.3    26  DT26        0.2141
    506  OP1       21.5950   10.9260  -29.2120 O.2    26  DT26       -0.5172
    507  OP2       23.2460   10.8300  -27.2460 O.3    26  DT26       -0.4373
    508  O5'       24.0900   10.4810  -29.5800 O.3    26  DT26       -0.3114
    509  C5'       23.9930   10.4780  -31.0120 C.3    26  DT26        0.1811
    510  C4'       24.8940    9.4090  -31.6020 C.3    26  DT26        0.1746
    511  O4'       26.2740    9.8640  -31.5430 O.3    26  DT26       -0.3327
    512  C3'       24.8950    8.0490  -30.9030 C.3    26  DT26        0.1558
    513  O3'       23.8190    7.1760  -31.2880 O.3    26  DT26       -0.3138
    514  C2'       26.2800    7.5020  -31.2460 C.3    26  DT26        0.0866
    515  C1'       27.1290    8.7730  -31.2380 C.3    26  DT26        0.2106
    516  N1        27.7100    9.0130  -29.8370 N.ar   26  DT26       -0.2559
    517  C2        28.9790    8.4920  -29.6690 C.ar   26  DT26        0.3545
    518  O2        29.6570    8.0810  -30.5940 O.2    26  DT26       -0.2443
    519  N3        29.4300    8.4680  -28.3710 N.ar   26  DT26       -0.1533
    520  C4        28.7550    8.9030  -27.2500 C.ar   26  DT26        0.2804
    521  O4        29.2920    8.8180  -26.1490 O.2    26  DT26       -0.2654
    522  C5        27.4440    9.4290  -27.5070 C.ar   26  DT26        0.0534
    523  C6        26.9810    9.4640  -28.7590 C.ar   26  DT26        0.0824
    524  C7        26.6290    9.9270  -26.3510 C.3    26  DT26        0.0377
    525  P         23.3370    5.7250  -30.2740 P.3    27  DT27        0.2141
    526  OP1       22.1000    5.1160  -30.8150 O.2    27  DT27       -0.5172
    527  OP2       23.3970    6.2360  -28.8860 O.3    27  DT27       -0.4373
    528  O5'       24.5280    4.6590  -30.3630 O.3    27  DT27       -0.3114
    529  C5'       24.7060    3.8820  -31.5400 C.3    27  DT27        0.1811
    530  C4'       25.9760    3.0710  -31.4750 C.3    27  DT27        0.1746
    531  O4'       27.0970    3.9650  -31.2530 O.3    27  DT27       -0.3327
    532  C3'       26.0620    2.0530  -30.3450 C.3    27  DT27        0.1558
    533  O3'       25.4490    0.8140  -30.6730 O.3    27  DT27       -0.3138
    534  C2'       27.5630    1.9330  -30.1070 C.3    27  DT27        0.0866
    535  C1'       28.0540    3.3460  -30.4240 C.3    27  DT27        0.2106
    536  N1        28.1670    4.1990  -29.3120 N.ar   27  DT27       -0.2559
    537  C2        29.2190    4.0190  -28.4340 C.ar   27  DT27        0.3545
    538  O2        30.1030    3.2010  -28.6150 O.2    27  DT27       -0.2443
    539  N3        29.1990    4.8360  -27.3290 N.ar   27  DT27       -0.1533
    540  C4        28.2530    5.7910  -27.0210 C.ar   27  DT27        0.2804
    541  O4        28.3710    6.4480  -25.9890 O.2    27  DT27       -0.2654
    542  C5        27.1930    5.9170  -27.9800 C.ar   27  DT27        0.0534
    543  C6        27.1880    5.1360  -29.0640 C.ar   27  DT27        0.0824
    544  C7        26.1150    6.9300  -27.7340 C.3    27  DT27        0.0377
    545  P         24.5570   -0.1090  -29.5460 P.3    28  DA28        0.2141
    546  OP1       23.7960   -1.2990  -30.0290 O.2    28  DA28       -0.5172
    547  OP2       23.9240    0.8260  -28.5820 O.3    28  DA28       -0.4373
    548  O5'       25.9050   -0.5990  -28.8500 O.3    28  DA28       -0.3114
    549  C5'       26.6760   -1.6840  -29.4000 C.3    28  DA28        0.1811
    550  C4'       27.8410   -2.0190  -28.4960 C.3    28  DA28        0.1746
    551  O4'       28.7500   -0.8880  -28.4190 O.3    28  DA28       -0.3327
    552  C3'       27.5110   -2.3520  -27.0470 C.3    28  DA28        0.1558
    553  O3'       27.1250   -3.7170  -26.8800 O.3    28  DA28       -0.3138
    554  C2'       28.8290   -2.0530  -26.3450 C.3    28  DA28        0.0865
    555  C1'       29.3380   -0.8370  -27.1300 C.3    28  DA28        0.2094
    556  N9        28.9580    0.3950  -26.4830 N.ar   28  DA28       -0.2714
    557  C8        27.8470    1.1620  -26.7200 C.ar   28  DA28        0.1815
    558  N7        27.7370    2.1940  -25.9170 N.ar   28  DA28       -0.2193
    559  C5        28.8500    2.0980  -25.0980 C.ar   28  DA28        0.1518
    560  C6        29.3140    2.8930  -24.0360 C.ar   28  DA28        0.1919
    561  N6        28.6850    3.9880  -23.6020 N.pl3  28  DA28       -0.1054
    562  N1        30.4600    2.5200  -23.4280 N.ar   28  DA28       -0.2040
    563  C2        31.0910    1.4230  -23.8630 C.ar   28  DA28        0.2016
    564  N3        30.7540    0.5960  -24.8510 N.ar   28  DA28       -0.2048
    565  C4        29.6110    0.9940  -25.4340 C.ar   28  DA28        0.1691
    566  P         26.3050   -4.2120  -25.5870 P.3    29  DC29        0.2141
    567  OP1       25.7650   -5.5730  -25.4200 O.2    29  DC29       -0.5172
    568  OP2       25.4670   -3.0620  -25.1820 O.3    29  DC29       -0.4373
    569  O5'       27.7020   -4.1290  -24.8460 O.3    29  DC29       -0.3114
    570  C5'       28.2590   -5.2130  -24.2060 C.3    29  DC29        0.1811
    571  C4'       28.8380   -4.6880  -22.9370 C.3    29  DC29        0.1746
    572  O4'       29.4940   -3.4270  -23.1720 O.3    29  DC29       -0.3327
    573  C3'       27.8100   -4.2990  -21.9200 C.3    29  DC29        0.1558
    574  O3'       27.2200   -5.4570  -21.3410 O.3    29  DC29       -0.3138
    575  C2'       28.6640   -3.4680  -20.9690 C.3    29  DC29        0.0866
    576  C1'       29.4980   -2.6890  -21.9640 C.3    29  DC29        0.2106
    577  N1        28.9690   -1.4350  -22.1370 N.ar   29  DC29       -0.2556
    578  C2        29.1810   -0.4490  -21.1660 C.ar   29  DC29        0.3531
    579  O2        29.9940   -0.6740  -20.2540 O.2    29  DC29       -0.2443
    580  N3        28.4950    0.7160  -21.2490 N.ar   29  DC29       -0.1739
    581  C4        27.6320    0.9120  -22.2460 C.ar   29  DC29        0.1759
    582  N4        26.9790    2.0760  -22.2870 N.pl3  29  DC29       -0.1070
    583  C5        27.4030   -0.0740  -23.2390 C.ar   29  DC29        0.0566
    584  C6        28.0820   -1.2230  -23.1540 C.ar   29  DC29        0.0849
    585  P         26.1140   -5.2440  -20.5060 P.3    30  DC30        0.2141
    586  OP1       25.6400   -6.4630  -19.8590 O.3    30  DC30       -0.4373
    587  OP2       25.1100   -4.2930  -21.0610 O.2    30  DC30       -0.5172
    588  O5'       27.1210   -4.4710  -19.5620 O.3    30  DC30       -0.3114
    589  C5'       28.0770   -5.1840  -18.7820 C.3    30  DC30        0.1811
    590  C4'       28.2910   -4.5180  -17.4430 C.3    30  DC30        0.1746
    591  O4'       28.9320   -3.2270  -17.6250 O.3    30  DC30       -0.3327
    592  C3'       27.0350   -4.1650  -16.6720 C.3    30  DC30        0.1558
    593  O3'       26.5480   -5.3110  -16.0220 O.3    30  DC30       -0.3138
    594  C2'       27.5880   -3.1170  -15.7160 C.3    30  DC30        0.0866
    595  C1'       28.4330   -2.3100  -16.6740 C.3    30  DC30        0.2106
    596  N1        27.7220   -1.1030  -17.4800 N.ar   30  DC30       -0.2556
    597  C2        27.7740    0.1480  -16.8540 C.ar   30  DC30        0.3531
    598  O2        28.4060    0.2580  -15.7900 O.2    30  DC30       -0.2443
    599  N3        27.1340    1.1970  -17.4240 N.ar   30  DC30       -0.1739
    600  C4        26.4670    1.0310  -18.5660 C.ar   30  DC30        0.1759
    601  N4        25.8520    2.0940  -19.0900 N.pl3  30  DC30       -0.1070
    602  C5        26.4030   -0.2280  -19.2160 C.ar   30  DC30        0.0566
    603  C6        27.0350   -1.2620  -18.6500 C.ar   30  DC30        0.0849
    604  P         24.8540   -5.3850  -15.6670 P.3    31  DT31        0.2141
    605  OP1       24.3660   -6.7610  -15.9110 O.3    31  DT31       -0.4373
    606  OP2       23.9900   -4.2160  -15.9440 O.2    31  DT31       -0.5172
    607  O5'       25.2490   -5.2240  -14.1240 O.3    31  DT31       -0.3114
    608  C5'       24.4550   -4.4290  -13.2550 C.3    31  DT31        0.1811
    609  C4'       25.2310   -3.2290  -12.7770 C.3    31  DT31        0.1746
    610  O4'       25.7760   -2.5150  -13.9180 O.3    31  DT31       -0.3327
    611  C3'       24.4370   -2.1700  -12.0320 C.3    31  DT31        0.1558
    612  O3'       24.2130   -2.4890  -10.6720 O.3    31  DT31       -0.3138
    613  C2'       25.2890   -0.9230  -12.2280 C.3    31  DT31        0.0866
    614  C1'       25.7830   -1.1240  -13.6600 C.3    31  DT31        0.2106
    615  N1        25.0390   -0.3950  -14.6790 N.ar   31  DT31       -0.2559
    616  C2        25.3010    0.9520  -14.8390 C.ar   31  DT31        0.3545
    617  O2        25.9290    1.6080  -14.0260 O.2    31  DT31       -0.2443
    618  N3        24.7990    1.5090  -15.9900 N.ar   31  DT31       -0.1533
    619  C4        24.0770    0.8680  -16.9760 C.ar   31  DT31        0.2804
    620  O4        23.6930    1.5040  -17.9550 O.2    31  DT31       -0.2654
    621  C5        23.8450   -0.5280  -16.7370 C.ar   31  DT31        0.0534
    622  C6        24.3230   -1.0960  -15.6250 C.ar   31  DT31        0.0824
    623  C7        23.0680   -1.3130  -17.7520 C.3    31  DT31        0.0377
    624  P         23.1290   -1.8890  -10.0130 P.3    32  DT32        0.2141
    625  OP1       22.9590   -2.3890   -8.6300 O.3    32  DT32       -0.4373
    626  OP2       22.0190   -2.0280  -10.9850 O.2    32  DT32       -0.5172
    627  O5'       23.5350   -0.3570   -9.9400 O.3    32  DT32       -0.3114
    628  C5'       24.5970    0.0640   -9.0810 C.3    32  DT32        0.1811
    629  C4'       24.8470    1.5350   -9.2540 C.3    32  DT32        0.1746
    630  O4'       25.3200    1.7790  -10.6020 O.3    32  DT32       -0.3327
    631  C3'       23.6280    2.4370   -9.1140 C.3    32  DT32        0.1558
    632  O3'       23.2870    2.7220   -7.7540 O.3    32  DT32       -0.3138
    633  C2'       24.0330    3.6640   -9.9190 C.3    32  DT32        0.0866
    634  C1'       24.8450    3.0340  -11.0540 C.3    32  DT32        0.2106
    635  N1        24.0210    2.8050  -12.2810 N.ar   32  DT32       -0.2559
    636  C2        23.7860    3.9040  -13.0850 C.ar   32  DT32        0.3545
    637  O2        24.2190    5.0150  -12.8360 O.2    32  DT32       -0.2443
    638  N3        23.0190    3.6560  -14.1980 N.ar   32  DT32       -0.1533
    639  C4        22.4760    2.4460  -14.5780 C.ar   32  DT32        0.2804
    640  O4        21.8080    2.3790  -15.6070 O.2    32  DT32       -0.2654
    641  C5        22.7640    1.3540  -13.6910 C.ar   32  DT32        0.0534
    642  C6        23.5080    1.5680  -12.6020 C.ar   32  DT32        0.0824
    643  C7        22.2170   -0.0040  -14.0180 C.3    32  DT32        0.0377
    644  P         21.6730    2.9090   -7.3390 P.3    33  DA33        0.2141
    645  OP1       21.5330    3.3090   -5.9200 O.3    33  DA33       -0.4373
    646  OP2       20.9520    1.7170   -7.8360 O.2    33  DA33       -0.5172
    647  O5'       21.2540    4.1550   -8.2590 O.3    33  DA33       -0.3114
    648  C5'       21.5920    5.4930   -7.8840 C.3    33  DA33        0.1811
    649  C4'       21.0380    6.5200   -8.8620 C.3    33  DA33        0.1746
    650  O4'       21.6230    6.3070  -10.1740 O.3    33  DA33       -0.3327
    651  C3'       19.5270    6.4790   -9.0740 C.3    33  DA33        0.1558
    652  O3'       18.8580    7.3560   -8.1700 O.3    33  DA33       -0.3138
    653  C2'       19.3630    6.9520  -10.5190 C.3    33  DA33        0.0865
    654  C1'       20.6380    6.4350  -11.1820 C.3    33  DA33        0.2094
    655  N9        20.5600    5.1160  -11.7880 N.ar   33  DA33       -0.2714
    656  C8        20.9430    3.8930  -11.3030 C.ar   33  DA33        0.1815
    657  N7        20.5400    2.8830  -12.0380 N.ar   33  DA33       -0.2193
    658  C5        19.8430    3.4840  -13.0740 C.ar   33  DA33        0.1518
    659  C6        19.1680    2.9590  -14.1900 C.ar   33  DA33        0.1919
    660  N6        19.0830    1.6530  -14.4550 N.pl3  33  DA33       -0.1054
    661  N1        18.5770    3.8320  -15.0330 N.ar   33  DA33       -0.2040
    662  C2        18.6630    5.1410  -14.7670 C.ar   33  DA33        0.2016
    663  N3        19.2700    5.7540  -13.7530 N.ar   33  DA33       -0.2048
    664  C4        19.8460    4.8590  -12.9330 C.ar   33  DA33        0.1691
    665  P         17.3130    7.2440   -8.0870 P.3    34  DT34        0.2141
    666  OP1       16.9430    8.3100   -7.1340 O.3    34  DT34       -0.4373
    667  OP2       17.4760    5.8550   -7.6130 O.2    34  DT34       -0.5172
    668  O5'       16.2530    7.2490   -9.2760 O.3    34  DT34       -0.3114
    669  C5'       16.1570    8.3090  -10.1990 C.3    34  DT34        0.1811
    670  C4'       15.3960    7.8050  -11.4080 C.3    34  DT34        0.1747
    671  O4'       16.2150    6.8440  -12.1200 O.3    34  DT34       -0.3327
    672  C3'       14.1290    7.0310  -11.1000 C.3    34  DT34        0.1585
    673  O3'       13.0550    7.9200  -10.9250 O.3    34  DT34       -0.1388
    674  C2'       13.9490    6.2600  -12.3920 C.3    34  DT34        0.0866
    675  C1'       15.3820    5.8740  -12.7260 C.3    34  DT34        0.2106
    676  N1        15.5720    4.4520  -12.0530 N.ar   34  DT34       -0.2559
    677  C2        15.2380    3.3600  -12.8310 C.ar   34  DT34        0.3545
    678  O2        14.3980    3.4050  -13.7130 O.2    34  DT34       -0.2443
    679  N3        15.9250    2.2070  -12.5400 N.ar   34  DT34       -0.1533
    680  C4        16.8900    2.0390  -11.5690 C.ar   34  DT34        0.2804
    681  O4        17.4200    0.9400  -11.4260 O.2    34  DT34       -0.2654
    682  C5        17.1800    3.2180  -10.8020 C.ar   34  DT34        0.0534
    683  C6        16.5270    4.3530  -11.0650 C.ar   34  DT34        0.0824
    684  C7        18.2160    3.1370   -9.7200 C.3    34  DT34        0.0377
    685  P         12.9260    8.0100   -9.7050 P.3    35  DA35        0.4713
    686  OP1       12.2910    8.6530   -8.5120 O.2    35  DA35       -0.2430
    687  OP2       13.2380    6.5560   -9.6980 O.3    35  DA35       -0.2847
    688  O5'       12.0220    8.2910  -10.9890 O.3    35  DA35       -0.2100
    689  C5'       11.4810    9.6040  -11.2600 C.3    35  DA35        0.2145
    690  C4'       10.4920    9.5280  -12.3990 C.3    35  DA35        0.1776
    691  O4'       11.1870    9.2200  -13.6350 O.3    35  DA35       -0.3326
    692  C3'        9.4500    8.4300  -12.2870 C.3    35  DA35        0.1559
    693  O3'        8.3590    8.7870  -11.4540 O.3    35  DA35       -0.3138
    694  C2'        9.0460    8.1930  -13.7350 C.3    35  DA35        0.0865
    695  C1'       10.3620    8.4220  -14.4650 C.3    35  DA35        0.2094
    696  N9        11.1150    7.1330  -14.7870 N.ar   35  DA35       -0.2714
    697  C8        12.0110    6.4150  -14.0390 C.ar   35  DA35        0.1815
    698  N7        12.4160    5.3090  -14.6170 N.ar   35  DA35       -0.2193
    699  C5        11.7390    5.3000  -15.8260 C.ar   35  DA35        0.1518
    700  C6        11.7340    4.3930  -16.9000 C.ar   35  DA35        0.1919
    701  N6        12.4610    3.2740  -16.9260 N.pl3  35  DA35       -0.1054
    702  N1        10.9460    4.6790  -17.9580 N.ar   35  DA35       -0.2040
    703  C2        10.2180    5.8010  -17.9320 C.ar   35  DA35        0.2016
    704  N3        10.1400    6.7310  -16.9820 N.ar   35  DA35       -0.2048
    705  C4        10.9330    6.4160  -15.9440 C.ar   35  DA35        0.1691
    706  P          7.4730    7.6390  -10.7080 P.3    36  DC36        0.2141
    707  OP1        6.4700    8.1240   -9.7280 O.3    36  DC36       -0.4373
    708  OP2        8.4600    6.6080  -10.2950 O.2    36  DC36       -0.5172
    709  O5'        6.7100    7.0780  -11.9940 O.3    36  DC36       -0.3114
    710  C5'        5.8220    7.9080  -12.7380 C.3    36  DC36        0.1811
    711  C4'        5.3760    7.2160  -14.0120 C.3    36  DC36        0.1746
    712  O4'        6.5340    6.7890  -14.7780 O.3    36  DC36       -0.3327
    713  C3'        4.5750    5.9290  -13.8860 C.3    36  DC36        0.1558
    714  O3'        3.2130    6.2050  -13.5860 O.3    36  DC36       -0.3138
    715  C2'        4.7190    5.3410  -15.2870 C.3    36  DC36        0.0866
    716  C1'        6.1620    5.7130  -15.6260 C.3    36  DC36        0.2106
    717  N1         7.1200    4.6660  -15.2800 N.ar   36  DC36       -0.2556
    718  C2         7.4140    3.6340  -16.1790 C.ar   36  DC36        0.3531
    719  O2         6.8900    3.6550  -17.3050 O.2    36  DC36       -0.2443
    720  N3         8.2580    2.6470  -15.7950 N.ar   36  DC36       -0.1739
    721  C4         8.7960    2.6660  -14.5750 C.ar   36  DC36        0.1759
    722  N4         9.6220    1.6710  -14.2410 N.pl3  36  DC36       -0.1070
    723  C5         8.5100    3.7020  -13.6500 C.ar   36  DC36        0.0566
    724  C6         7.6770    4.6760  -14.0330 C.ar   36  DC36        0.0849
    725  P          2.4300    5.0920  -13.0740 P.3    37  DC37        0.2141
    726  OP1        1.1400    5.7520  -12.7650 O.2    37  DC37       -0.5172
    727  OP2        3.3090    4.6390  -11.9730 O.3    37  DC37       -0.4373
    728  O5'        2.1520    3.8340  -14.0290 O.3    37  DC37       -0.3114
    729  C5'        1.4340    4.0030  -15.2480 C.3    37  DC37        0.1811
    730  C4'        1.5470    2.7770  -16.1430 C.3    37  DC37        0.1746
    731  O4'        2.9310    2.5620  -16.5260 O.3    37  DC37       -0.3327
    732  C3'        1.1430    1.4500  -15.5180 C.3    37  DC37        0.1558
    733  O3'       -0.2580    1.2590  -15.5490 O.3    37  DC37       -0.3138
    734  C2'        1.8270    0.4810  -16.4700 C.3    37  DC37        0.0866
    735  C1'        3.1770    1.1690  -16.6210 C.3    37  DC37        0.2106
    736  N1         4.1610    0.7240  -15.6250 N.ar   37  DC37       -0.2556
    737  C2         4.7640   -0.5300  -15.7740 C.ar   37  DC37        0.3531
    738  O2         4.4420   -1.2360  -16.7440 O.2    37  DC37       -0.2443
    739  N3         5.6770   -0.9360  -14.8600 N.ar   37  DC37       -0.1739
    740  C4         5.9920   -0.1440  -13.8330 C.ar   37  DC37        0.1759
    741  N4         6.8970   -0.5870  -12.9570 N.pl3  37  DC37       -0.1070
    742  C5         5.3920    1.1300  -13.6640 C.ar   37  DC37        0.0566
    743  C6         4.4910    1.5270  -14.5690 C.ar   37  DC37        0.0849
    744  P         -0.9650    0.3860  -14.2650 P.3    38  DA38        0.2141
    745  OP1       -2.3840    0.5270  -14.6760 O.2    38  DA38       -0.5172
    746  OP2       -0.4560    1.0020  -13.0160 O.3    38  DA38       -0.4373
    747  O5'       -0.6110   -1.1670  -14.1300 O.3    38  DA38       -0.3114
    748  C5'       -1.0800   -2.0020  -15.1750 C.3    38  DA38        0.1811
    749  C4'       -0.3230   -3.2990  -15.2560 C.3    38  DA38        0.1746
    750  O4'        1.0880   -3.0490  -15.4650 O.3    38  DA38       -0.3327
    751  C3'       -0.3700   -4.1760  -14.0220 C.3    38  DA38        0.1558
    752  O3'       -1.5560   -4.9410  -13.9550 O.3    38  DA38       -0.3138
    753  C2'        0.8470   -5.0490  -14.2340 C.3    38  DA38        0.0865
    754  C1'        1.8420   -4.0420  -14.8100 C.3    38  DA38        0.2094
    755  N9         2.6690   -3.3770  -13.7830 N.ar   38  DA38       -0.2714
    756  C8         2.5040   -2.0950  -13.3270 C.ar   38  DA38        0.1815
    757  N7         3.4160   -1.7210  -12.4610 N.ar   38  DA38       -0.2193
    758  C5         4.2350   -2.8320  -12.3400 C.ar   38  DA38        0.1518
    759  C6         5.3870   -3.0790  -11.5740 C.ar   38  DA38        0.1919
    760  N6         5.9340   -2.1810  -10.7510 N.pl3  38  DA38       -0.1054
    761  N1         5.9640   -4.2950  -11.6830 N.ar   38  DA38       -0.2040
    762  C2         5.4160   -5.1940  -12.5090 C.ar   38  DA38        0.2016
    763  N3         4.3370   -5.0790  -13.2800 N.ar   38  DA38       -0.2048
    764  C4         3.7870   -3.8600  -13.1470 C.ar   38  DA38        0.1691
    765  P         -1.8270   -5.6970  -12.7860 P.3    39  DG39        0.2141
    766  OP1       -3.1420   -6.2400  -13.2210 O.2    39  DG39       -0.5172
    767  OP2       -1.7700   -4.4310  -12.0000 O.3    39  DG39       -0.4373
    768  O5'       -1.0290   -6.8340  -12.0220 O.3    39  DG39       -0.3114
    769  C5'       -0.6120   -7.9730  -12.7500 C.3    39  DG39        0.1811
    770  C4'        0.3910   -8.7350  -11.9540 C.3    39  DG39        0.1746
    771  O4'        1.6810   -8.0990  -12.0710 O.3    39  DG39       -0.3327
    772  C3'        0.1310   -8.7190  -10.4590 C.3    39  DG39        0.1558
    773  O3'       -0.8500   -9.6730  -10.0950 O.3    39  DG39       -0.3138
    774  C2'        1.4910   -9.1030   -9.9270 C.3    39  DG39        0.0865
    775  C1'        2.4020   -8.3100  -10.8650 C.3    39  DG39        0.2094
    776  N9         2.7450   -7.0240  -10.2770 N.ar   39  DG39       -0.2713
    777  C8         2.2190   -5.7850  -10.5490 C.ar   39  DG39        0.1816
    778  N7         2.7020   -4.8420   -9.7860 N.ar   39  DG39       -0.2173
    779  C5         3.6010   -5.4930   -8.9630 C.ar   39  DG39        0.1748
    780  C6         4.4320   -4.9950   -7.9260 C.ar   39  DG39        0.3023
    781  O6         4.5370   -3.8300   -7.5220 O.2    39  DG39       -0.2633
    782  N1         5.1940   -6.0020   -7.3400 N.ar   39  DG39       -0.1709
    783  C2         5.1590   -7.3260   -7.7080 C.ar   39  DG39        0.2606
    784  N2         5.9680   -8.1490   -7.0260 N.pl3  39  DG39       -0.0859
    785  N3         4.3920   -7.8030   -8.6670 N.ar   39  DG39       -0.1918
    786  C4         3.6430   -6.8440   -9.2500 C.ar   39  DG39        0.1722
    787  P         -1.9050   -9.3750   -8.7790 P.3    40  DC40        0.2141
    788  OP1       -2.8770  -10.5010   -8.8030 O.2    40  DC40       -0.5172
    789  OP2       -2.3820   -8.0010   -8.4800 O.3    40  DC40       -0.4373
    790  O5'       -0.7490   -9.7470   -7.7470 O.3    40  DC40       -0.3114
    791  C5'       -0.2730  -11.0990   -7.6350 C.3    40  DC40        0.1811
    792  C4'        0.7240  -11.2090   -6.5100 C.3    40  DC40        0.1746
    793  O4'        1.8940  -10.4090   -6.8260 O.3    40  DC40       -0.3327
    794  C3'        0.2640  -10.6650   -5.1670 C.3    40  DC40        0.1558
    795  O3'       -0.5550  -11.5870   -4.4590 O.3    40  DC40       -0.3138
    796  C2'        1.5890  -10.3870   -4.4710 C.3    40  DC40        0.0866
    797  C1'        2.4140   -9.8350   -5.6350 C.3    40  DC40        0.2106
    798  N1         2.3050   -8.4020   -5.7430 N.ar   40  DC40       -0.2556
    799  C2         3.0630   -7.5850   -4.8970 C.ar   40  DC40        0.3531
    800  O2         3.8410   -8.1190   -4.0880 O.2    40  DC40       -0.2443
    801  N3         2.9260   -6.2400   -4.9830 N.ar   40  DC40       -0.1739
    802  C4         2.0780   -5.7110   -5.8650 C.ar   40  DC40        0.1759
    803  N4         1.9760   -4.3800   -5.9140 N.pl3  40  DC40       -0.1070
    804  C5         1.3010   -6.5220   -6.7310 C.ar   40  DC40        0.0566
    805  C6         1.4390   -7.8490   -6.6430 C.ar   40  DC40        0.0849
    806  P         -1.7380  -11.0170   -3.2580 P.3    41  DT41        0.2141
    807  OP1       -2.9770  -11.8180   -3.0910 O.2    41  DT41       -0.5172
    808  OP2       -1.7490   -9.5500   -3.0540 O.3    41  DT41       -0.4373
    809  O5'       -0.5900  -11.5630   -2.2870 O.3    41  DT41       -0.3114
    810  C5'       -0.5910  -11.1250   -0.9420 C.3    41  DT41        0.1811
    811  C4'        0.7820  -10.7700   -0.4350 C.3    41  DT41        0.1746
    812  O4'        1.5180   -9.9630   -1.3930 O.3    41  DT41       -0.3327
    813  C3'        0.7460   -9.8780    0.7820 C.3    41  DT41        0.1558
    814  O3'        0.3740  -10.5750    1.9500 O.3    41  DT41       -0.3138
    815  C2'        2.1340   -9.2550    0.7810 C.3    41  DT41        0.0866
    816  C1'        2.3130   -9.0060   -0.7150 C.3    41  DT41        0.2106
    817  N1         1.6700   -7.5630   -0.9870 N.ar   41  DT41       -0.2559
    818  C2         2.3060   -6.4070   -0.5770 C.ar   41  DT41        0.3545
    819  O2         3.1960   -6.3990    0.2560 O.2    41  DT41       -0.2443
    820  N3         1.8620   -5.2540   -1.1780 N.ar   41  DT41       -0.1533
    821  C4         0.8670   -5.1430   -2.1270 C.ar   41  DT41        0.2804
    822  O4         0.5800   -4.0360   -2.5750 O.2    41  DT41       -0.2654
    823  C5         0.2540   -6.3870   -2.5000 C.ar   41  DT41        0.0534
    824  C6         0.6670   -7.5230   -1.9310 C.ar   41  DT41        0.0824
    825  C7        -0.8400   -6.3710   -3.5260 C.3    41  DT41        0.0377
    826  P         -0.7370  -10.0990    2.3450 P.3    42  DT42        0.2141
    827  OP1       -1.2210  -11.3650    2.9270 O.3    42  DT42       -0.4373
    828  OP2       -1.6310   -9.3340    1.4370 O.2    42  DT42       -0.5172
    829  O5'       -0.2720   -9.0980    3.4940 O.3    42  DT42       -0.3114
    830  C5'        0.9540   -9.3420    4.2010 C.3    42  DT42        0.1811
    831  C4'        1.7650   -8.0790    4.3150 C.3    42  DT42        0.1746
    832  O4'        1.9610   -7.5050    3.0010 O.3    42  DT42       -0.3327
    833  C3'        1.1200   -6.9010    5.0060 C.3    42  DT42        0.1558
    834  O3'        1.0460   -7.0670    6.3980 O.3    42  DT42       -0.3138
    835  C2'        2.0770   -5.7830    4.6120 C.3    42  DT42        0.0866
    836  C1'        2.3630   -6.1550    3.1590 C.3    42  DT42        0.2106
    837  N1         1.4930   -5.2700    2.4030 N.ar   42  DT42       -0.2559
    838  C2         1.9180   -4.0150    2.0100 C.ar   42  DT42        0.3545
    839  O2         2.9320   -3.4930    2.4380 O.2    42  DT42       -0.2443
    840  N3         1.1080   -3.3890    1.0930 N.ar   42  DT42       -0.1533
    841  C4        -0.0570   -3.8800    0.5430 C.ar   42  DT42        0.2804
    842  O4        -0.6750   -3.1990   -0.2710 O.2    42  DT42       -0.2654
    843  C5        -0.4320   -5.1880    1.0020 C.ar   42  DT42        0.0534
    844  C6         0.3370   -5.8200    1.8930 C.ar   42  DT42        0.0824
    845  C7        -1.6860   -5.8090    0.4620 C.3    42  DT42        0.0377
    846  P         -0.4240   -7.1030    7.1260 P.3    43  DA43        0.2141
    847  OP1       -0.8010   -8.0620    8.1930 O.3    43  DA43       -0.4373
    848  OP2       -1.3600   -6.8450    6.0060 O.2    43  DA43       -0.5172
    849  O5'       -0.1370   -5.6390    7.7180 O.3    43  DA43       -0.3114
    850  C5'        1.1420   -5.2570    8.2090 C.3    43  DA43        0.1811
    851  C4'        1.2960   -3.7550    8.3220 C.3    43  DA43        0.1746
    852  O4'        1.3830   -3.1520    7.0040 O.3    43  DA43       -0.3327
    853  C3'        0.1590   -2.9960    8.9870 C.3    43  DA43        0.1558
    854  O3'        0.2090   -3.0450   10.3990 O.3    43  DA43       -0.3138
    855  C2'        0.3610   -1.5860    8.4540 C.3    43  DA43        0.0865
    856  C1'        0.8170   -1.8580    7.0250 C.3    43  DA43        0.2094
    857  N9        -0.3480   -1.7590    6.0540 N.ar   43  DA43       -0.2714
    858  C8        -1.0570   -2.7480    5.4230 C.ar   43  DA43        0.1815
    859  N7        -1.9860   -2.2980    4.6130 N.ar   43  DA43       -0.2190
    860  C5        -1.8800   -0.9200    4.7200 C.ar   43  DA43        0.1566
    861  C6        -2.5860    0.1330    4.1110 C.ar   43  DA43        0.2310
    862  N6        -3.5780   -0.0500    3.2370 N.2    43  DA43       -0.0126
    863  N1        -2.2320    1.3950    4.4360 N.ar   43  DA43       -0.1999
    864  C2        -1.2370    1.5770    5.3120 C.ar   43  DA43        0.2018
    865  N3        -0.5000    0.6700    5.9480 N.ar   43  DA43       -0.2048
    866  C4        -0.8770   -0.5730    5.6040 C.ar   43  DA43        0.1694
    867  P         -1.1600   -2.6200   11.3220 P.3    44  DT44        0.2141
    868  OP1       -0.9720   -2.6230   12.7890 O.3    44  DT44       -0.4373
    869  OP2       -2.3090   -3.3730   10.7740 O.2    44  DT44       -0.5172
    870  O5'       -1.2320   -1.1200   10.7610 O.3    44  DT44       -0.3114
    871  C5'       -0.4080   -0.0710   11.2660 C.3    44  DT44        0.1811
    872  C4'       -1.0250    1.2730   10.9260 C.3    44  DT44        0.1746
    873  O4'       -0.8760    1.5180    9.4970 O.3    44  DT44       -0.3327
    874  C3'       -2.5290    1.4110   11.2010 C.3    44  DT44        0.1558
    875  O3'       -2.8380    1.7220   12.5760 O.3    44  DT44       -0.3138
    876  C2'       -2.8470    2.5740   10.2650 C.3    44  DT44        0.0866
    877  C1'       -2.0120    2.2210    9.0270 C.3    44  DT44        0.2106
    878  N1        -2.8870    1.3290    8.1140 N.ar   44  DT44       -0.2559
    879  C2        -3.8450    1.9390    7.3260 C.ar   44  DT44        0.3545
    880  O2        -4.0650    3.1370    7.3550 O.2    44  DT44       -0.2443
    881  N3        -4.5420    1.0920    6.4980 N.ar   44  DT44       -0.1533
    882  C4        -4.3800   -0.2730    6.3820 C.ar   44  DT44        0.2804
    883  O4        -5.0810   -0.9010    5.5920 O.2    44  DT44       -0.2654
    884  C5        -3.3670   -0.8310    7.2330 C.ar   44  DT44        0.0534
    885  C6        -2.6750   -0.0300    8.0480 C.ar   44  DT44        0.0824
    886  C7        -3.1150   -2.3090    7.1800 C.3    44  DT44        0.0377
    887  P         -4.1040    0.8760   13.5250 P.3    45  DT45        0.2141
    888  OP1       -3.9780    0.9690   15.0050 O.3    45  DT45       -0.4373
    889  OP2       -4.7850   -0.3000   12.9190 O.2    45  DT45       -0.5172
    890  O5'       -4.8330    2.1880   13.0010 O.3    45  DT45       -0.3114
    891  C5'       -4.2880    3.4890   13.2770 C.3    45  DT45        0.1811
    892  C4'       -5.1160    4.5490   12.5990 C.3    45  DT45        0.1746
    893  O4'       -5.0370    4.3710   11.1610 O.3    45  DT45       -0.3327
    894  C3'       -6.6010    4.4700   12.8920 C.3    45  DT45        0.1558
    895  O3'       -6.9280    5.0910   14.1230 O.3    45  DT45       -0.3138
    896  C2'       -7.2060    5.1780   11.6890 C.3    45  DT45        0.0866
    897  C1'       -6.2920    4.6770   10.5700 C.3    45  DT45        0.2106
    898  N1        -6.7290    3.5520    9.9010 N.ar   45  DT45       -0.2559
    899  C2        -7.6310    3.6450    8.8590 C.ar   45  DT45        0.3545
    900  O2        -8.0900    4.7040    8.4700 O.2    45  DT45       -0.2443
    901  N3        -7.9810    2.4460    8.2840 N.ar   45  DT45       -0.1533
    902  C4        -7.5280    1.1930    8.6400 C.ar   45  DT45        0.2804
    903  O4        -7.9340    0.2070    8.0280 O.2    45  DT45       -0.2654
    904  C5        -6.5950    1.1800    9.7310 C.ar   45  DT45        0.0534
    905  C6        -6.2380    2.3310   10.3080 C.ar   45  DT45        0.0824
    906  C7        -6.0450   -0.1370   10.1930 C.3    45  DT45        0.0377
    907  P         -8.2650    4.5920   15.0380 P.3    46  DC46        0.2141
    908  OP1       -8.3900    5.2390   16.3620 O.3    46  DC46       -0.4373
    909  OP2       -8.4090    3.1240   14.9200 O.2    46  DC46       -0.5172
    910  O5'       -9.2930    5.2760   14.0220 O.3    46  DC46       -0.3114
    911  C5'       -9.2160    6.6590   13.7090 C.3    46  DC46        0.1811
    912  C4'      -10.1240    6.9160   12.5270 C.3    46  DC46        0.1746
    913  O4'       -9.6890    6.1440   11.3850 O.3    46  DC46       -0.3327
    914  C3'      -11.5450    6.4220   12.7140 C.3    46  DC46        0.1558
    915  O3'      -12.2550    7.3160   13.5490 O.3    46  DC46       -0.3138
    916  C2'      -12.0260    6.4850   11.2740 C.3    46  DC46        0.0866
    917  C1'      -10.7880    6.0230   10.5020 C.3    46  DC46        0.2106
    918  N1       -10.9230    4.4760   10.1490 N.ar   46  DC46       -0.2556
    919  C2       -11.6940    4.0390    9.0670 C.ar   46  DC46        0.3531
    920  O2       -12.3800    4.8690    8.4460 O.2    46  DC46       -0.2443
    921  N3       -11.6720    2.7270    8.7290 N.ar   46  DC46       -0.1739
    922  C4       -10.9220    1.8720    9.4240 C.ar   46  DC46        0.1759
    923  N4       -10.9320    0.5890    9.0540 N.pl3  46  DC46       -0.1070
    924  C5       -10.1330    2.2950   10.5240 C.ar   46  DC46        0.0566
    925  C6       -10.1580    3.5910   10.8540 C.ar   46  DC46        0.0849
    926  P        -13.0720    6.7210   14.7090 P.3    47  DA47        0.2141
    927  OP1      -13.0890    7.7250   15.8010 O.3    47  DA47       -0.4373
    928  OP2      -12.7300    5.3090   15.0190 O.2    47  DA47       -0.5172
    929  O5'      -14.4790    6.6790   13.9790 O.3    47  DA47       -0.3114
    930  C5'      -14.8130    7.6430   12.9980 C.3    47  DA47        0.1811
    931  C4'      -15.9600    7.1410   12.1710 C.3    47  DA47        0.1746
    932  O4'      -15.4710    6.2740   11.1310 O.3    47  DA47       -0.3327
    933  C3'      -16.9400    6.2680   12.9250 C.3    47  DA47        0.1558
    934  O3'      -17.8560    7.0580   13.6550 O.3    47  DA47       -0.3138
    935  C2'      -17.6180    5.5010   11.8020 C.3    47  DA47        0.0865
    936  C1'      -16.4730    5.3260   10.8070 C.3    47  DA47        0.2094
    937  N9       -15.8050    4.0300   10.7900 N.ar   47  DA47       -0.2714
    938  C8       -14.7270    3.6540   11.5480 C.ar   47  DA47        0.1815
    939  N7       -14.2880    2.4460   11.2820 N.ar   47  DA47       -0.2193
    940  C5       -15.1370    1.9980   10.2820 C.ar   47  DA47        0.1518
    941  C6       -15.2000    0.7890    9.5670 C.ar   47  DA47        0.1919
    942  N6       -14.3590   -0.2290    9.7610 N.pl3  47  DA47       -0.1054
    943  N1       -16.1690    0.6630    8.6360 N.ar   47  DA47       -0.2040
    944  C2       -17.0110    1.6840    8.4420 C.ar   47  DA47        0.2016
    945  N3       -17.0510    2.8680    9.0490 N.ar   47  DA47       -0.2048
    946  C4       -16.0760    2.9620    9.9690 C.ar   47  DA47        0.1691
    947  P        -18.6010    6.4430   15.0770 P.3    48  DA48        0.2141
    948  OP1      -19.1130    7.4930   15.9450 O.3    48  DA48       -0.4373
    949  OP2      -17.8210    5.2850   15.5000 O.2    48  DA48       -0.5172
    950  O5'      -19.6080    5.8240   14.0460 O.3    48  DA48       -0.3114
    951  C5'      -20.1940    6.6540   13.0850 C.3    48  DA48        0.1812
    952  C4'      -20.8020    5.7240   12.0560 C.3    48  DA48        0.1775
    953  O4'      -19.6480    5.1040   11.4920 O.3    48  DA48       -0.3326
    954  C3'      -21.6170    4.4930   12.4800 C.3    48  DA48        0.1864
    955  O3'      -23.0460    4.6920   12.7170 O.3    48  DA48       -0.2133
    956  C2'      -21.5180    3.7420   11.1910 C.3    48  DA48        0.0894
    957  C1'      -20.0620    3.8670   10.9080 C.3    48  DA48        0.2095
    958  N9       -19.2670    2.8100   11.4100 N.ar   48  DA48       -0.2714
    959  C8       -18.4580    2.8770   12.5140 C.ar   48  DA48        0.1815
    960  N7       -17.7820    1.7760   12.7420 N.ar   48  DA48       -0.2193
    961  C5       -18.1740    0.9280   11.7180 C.ar   48  DA48        0.1518
    962  C6       -17.8170   -0.3930   11.3950 C.ar   48  DA48        0.1919
    963  N6       -16.9460   -1.1180   12.1010 N.pl3  48  DA48       -0.1054
    964  N1       -18.3930   -0.9490   10.3080 N.ar   48  DA48       -0.2040
    965  C2       -19.2650   -0.2220    9.6000 C.ar   48  DA48        0.2016
    966  N3       -19.6790    1.0260    9.8030 N.ar   48  DA48       -0.2048
    967  C4       -19.0890    1.5500   10.8910 C.ar   48  DA48        0.1691
    968  P        -23.9760    3.8450   13.9900 P.3    49  DT49        0.3939
    969  OP1      -24.3460    5.2410   13.6810 O.3    49  DT49       -0.1496
    970  OP2      -24.9190    2.9780   14.7220 O.3    49  DT49       -0.1425
    971  O5'      -23.5920    3.0710   12.6490 O.3    49  DT49       -0.2926
    972  C5'      -24.5770    2.9290   11.6380 C.3    49  DT49        0.1828
    973  C4'      -24.7510    1.4780   11.2520 C.3    49  DT49        0.1747
    974  O4'      -23.5270    1.0370   10.6220 O.3    49  DT49       -0.3327
    975  C3'      -24.9470    0.5010   12.4020 C.3    49  DT49        0.1558
    976  O3'      -26.3170    0.4360   12.7810 O.3    49  DT49       -0.3138
    977  C2'      -24.4720   -0.7920   11.7530 C.3    49  DT49        0.0866
    978  C1'      -23.2560   -0.3090   10.9700 C.3    49  DT49        0.2106
    979  N1       -22.0620   -0.4470   11.7310 N.ar   49  DT49       -0.2559
    980  C2       -21.4250   -1.6710   11.6600 C.ar   49  DT49        0.3545
    981  O2       -21.7610   -2.5520   10.8890 O.2    49  DT49       -0.2443
    982  N3       -20.3730   -1.8290   12.5300 N.ar   49  DT49       -0.1533
    983  C4       -19.9060   -0.9070   13.4430 C.ar   49  DT49        0.2804
    984  O4       -18.9480   -1.1950   14.1580 O.2    49  DT49       -0.2654
    985  C5       -20.6200    0.3380   13.4570 C.ar   49  DT49        0.0534
    986  C6       -21.6470    0.5190   12.6210 C.ar   49  DT49        0.0824
    987  C7       -20.1880    1.4060   14.4170 C.3    49  DT49        0.0377
    988  P        -26.7020    0.1430   14.1900 P.3    50  DT50        0.2141
    989  OP1      -27.8860    0.3710   15.0500 O.3    50  DT50       -0.4373
    990  OP2      -25.3910    0.7310   14.5500 O.2    50  DT50       -0.5172
    991  O5'      -26.4150   -1.4310   14.0870 O.3    50  DT50       -0.3114
    992  C5'      -27.4190   -2.3210   13.6140 C.3    50  DT50        0.1811
    993  C4'      -26.8570   -3.3770   12.6930 C.3    50  DT50        0.1746
    994  O4'      -25.5680   -2.9500   12.1680 O.3    50  DT50       -0.3327
    995  C3'      -26.5500   -4.7360   13.3080 C.3    50  DT50        0.1558
    996  O3'      -27.6970   -5.5440   13.5180 O.3    50  DT50       -0.3138
    997  C2'      -25.5760   -5.3180   12.2890 C.3    50  DT50        0.0866
    998  C1'      -24.7530   -4.0810   11.9250 C.3    50  DT50        0.2106
    999  N1       -23.5670   -4.0380   12.8380 N.ar   50  DT50       -0.2559
   1000  C2       -22.4630   -4.8400   12.6160 C.ar   50  DT50        0.3545
   1001  O2       -22.4410   -5.7210   11.7750 O.2    50  DT50       -0.2443
   1002  N3       -21.3810   -4.5750   13.4200 N.ar   50  DT50       -0.1533
   1003  C4       -21.2930   -3.6090   14.4010 C.ar   50  DT50        0.2804
   1004  O4       -20.2520   -3.4900   15.0410 O.2    50  DT50       -0.2654
   1005  C5       -22.4800   -2.8180   14.5710 C.ar   50  DT50        0.0534
   1006  C6       -23.5460   -3.0550   13.8030 C.ar   50  DT50        0.0824
   1007  C7       -22.4840   -1.7410   15.6150 C.3    50  DT50        0.0377
   1008  P        -27.6490   -6.7850   14.5530 P.3    51  DA51        0.2141
   1009  OP1      -28.9230   -7.5360   14.6620 O.2    51  DA51       -0.5172
   1010  OP2      -27.0240   -6.2500   15.7860 O.3    51  DA51       -0.4373
   1011  O5'      -26.4920   -7.7020   13.9120 O.3    51  DA51       -0.3114
   1012  C5'      -26.6320   -8.3540   12.6470 C.3    51  DA51        0.1811
   1013  C4'      -25.6640   -9.4980   12.4200 C.3    51  DA51        0.1746
   1014  O4'      -24.3650   -8.9600   12.0500 O.3    51  DA51       -0.3327
   1015  C3'      -25.4190  -10.4140   13.6180 C.3    51  DA51        0.1558
   1016  O3'      -25.9650  -11.7180   13.4860 O.3    51  DA51       -0.3138
   1017  C2'      -23.9030  -10.5040   13.8060 C.3    51  DA51        0.0865
   1018  C1'      -23.3080   -9.5830   12.7520 C.3    51  DA51        0.2094
   1019  N9       -22.6540   -8.6050   13.6660 N.ar   51  DA51       -0.2714
   1020  C8       -23.1380   -7.5240   14.3550 C.ar   51  DA51        0.1815
   1021  N7       -22.2800   -7.0100   15.2030 N.ar   51  DA51       -0.2193
   1022  C5       -21.1560   -7.8090   15.0630 C.ar   51  DA51        0.1518
   1023  C6       -19.8960   -7.7860   15.6850 C.ar   51  DA51        0.1919
   1024  N6       -19.5450   -6.8910   16.6120 N.pl3  51  DA51       -0.1054
   1025  N1       -18.9980   -8.7250   15.3180 N.ar   51  DA51       -0.2040
   1026  C2       -19.3500   -9.6210   14.3880 C.ar   51  DA51        0.2016
   1027  N3       -20.5020   -9.7430   13.7320 N.ar   51  DA51       -0.2048
   1028  C4       -21.3720   -8.7960   14.1200 C.ar   51  DA51        0.1691
   1029  P        -26.3340  -11.6330   14.4880 P.3    52  DC52        0.2141
   1030  OP1      -27.5390  -12.4740   14.2990 O.2    52  DC52       -0.5172
   1031  OP2      -26.4090  -10.3800   15.2710 O.3    52  DC52       -0.4373
   1032  O5'      -25.2010  -12.4940   15.2280 O.3    52  DC52       -0.3114
   1033  C5'      -24.9770  -13.8630   14.9060 C.3    52  DC52        0.1811
   1034  C4'      -23.7150  -14.3980   15.5440 C.3    52  DC52        0.1746
   1035  O4'      -22.6120  -13.4980   15.2630 O.3    52  DC52       -0.3327
   1036  C3'      -23.7220  -14.5370   17.0640 C.3    52  DC52        0.1558
   1037  O3'      -24.3110  -15.7510   17.5120 O.3    52  DC52       -0.3138
   1038  C2'      -22.2440  -14.4240   17.4240 C.3    52  DC52        0.0866
   1039  C1'      -21.7300  -13.4490   16.3660 C.3    52  DC52        0.2106
   1040  N1       -21.6630  -12.0220   16.8020 N.ar   52  DC52       -0.2556
   1041  C2       -20.5400  -11.5560   17.4950 C.ar   52  DC52        0.3531
   1042  O2       -19.5920  -12.3360   17.6900 O.2    52  DC52       -0.2443
   1043  N3       -20.5190  -10.2750   17.9330 N.ar   52  DC52       -0.1739
   1044  C4       -21.5600   -9.4740   17.7020 C.ar   52  DC52        0.1759
   1045  N4       -21.4950   -8.2190   18.1530 N.pl3  52  DC52       -0.1070
   1046  C5       -22.7070   -9.9260   17.0010 C.ar   52  DC52        0.0566
   1047  C6       -22.7240  -11.1930   16.5700 C.ar   52  DC52        0.0849
   1048  P        -24.8150  -16.0040   19.1030 P.3    53  DG53        0.2141
   1049  OP1      -25.2800  -17.4120   19.0950 O.2    53  DG53       -0.5172
   1050  OP2      -25.7360  -14.9220   19.5280 O.3    53  DG53       -0.4373
   1051  O5'      -23.5540  -15.8440   20.0850 O.3    53  DG53       -0.3114
   1052  C5'      -22.5870  -16.8820   20.1880 C.3    53  DG53        0.1811
   1053  C4'      -21.2980  -16.4530   20.8520 C.3    53  DG53        0.1746
   1054  O4'      -20.6110  -15.4580   20.0510 O.3    53  DG53       -0.3327
   1055  C3'      -21.3970  -15.8210   22.2320 C.3    53  DG53        0.1558
   1056  O3'      -21.5270  -16.7900   23.2560 O.3    53  DG53       -0.3138
   1057  C2'      -20.0820  -15.0670   22.3350 C.3    53  DG53        0.0865
   1058  C1'      -19.8340  -14.6380   20.8920 C.3    53  DG53        0.2094
   1059  N9       -20.1470  -13.3360   20.5780 N.ar   53  DG53       -0.2713
   1060  C8       -21.2590  -12.8030   19.9720 C.ar   53  DG53        0.1816
   1061  N7       -21.3770  -11.5160   20.1540 N.ar   53  DG53       -0.2173
   1062  C5       -20.2800  -11.1750   20.9230 C.ar   53  DG53        0.1748
   1063  C6       -19.8680   -9.9200   21.4400 C.ar   53  DG53        0.3023
   1064  O6       -20.4200   -8.8200   21.3100 O.2    53  DG53       -0.2633
   1065  N1       -18.6900  -10.0200   22.1740 N.ar   53  DG53       -0.1709
   1066  C2       -17.9930  -11.1870   22.3840 C.ar   53  DG53        0.2606
   1067  N2       -16.8770  -11.0840   23.1180 N.pl3  53  DG53       -0.0859
   1068  N3       -18.3640  -12.3600   21.9110 N.ar   53  DG53       -0.1918
   1069  C4       -19.5060  -12.2870   21.1960 C.ar   53  DG53        0.1722
   1070  P        -21.9950  -16.4430   24.3270 P.3    54  DT54        0.2141
   1071  OP1      -21.9180  -17.7610   24.9950 O.3    54  DT54       -0.4373
   1072  OP2      -22.7060  -15.3120   24.9680 O.2    54  DT54       -0.5172
   1073  O5'      -20.5180  -15.8870   24.0790 O.3    54  DT54       -0.3114
   1074  C5'      -19.3720  -16.5960   24.5110 C.3    54  DT54        0.1811
   1075  C4'      -18.5630  -15.7420   25.4510 C.3    54  DT54        0.1746
   1076  O4'      -18.1440  -14.5290   24.7720 O.3    54  DT54       -0.3327
   1077  C3'      -19.3090  -15.2300   26.6700 C.3    54  DT54        0.1558
   1078  O3'      -19.4130  -16.1960   27.6990 O.3    54  DT54       -0.3138
   1079  C2'      -18.4750  -14.0200   27.0540 C.3    54  DT54        0.0866
   1080  C1'      -18.1310  -13.4500   25.6800 C.3    54  DT54        0.2106
   1081  N1       -19.0410  -12.4200   25.1610 N.ar   54  DT54       -0.2559
   1082  C2       -18.7390  -11.1120   25.4870 C.ar   54  DT54        0.3545
   1083  O2       -17.7170  -10.7910   26.0680 O.2    54  DT54       -0.2443
   1084  N3       -19.6800  -10.1860   25.1070 N.ar   54  DT54       -0.1533
   1085  C4       -20.8670  -10.4330   24.4490 C.ar   54  DT54        0.2804
   1086  O4       -21.6120   -9.4950   24.1730 O.2    54  DT54       -0.2654
   1087  C5       -21.1090  -11.8150   24.1470 C.ar   54  DT54        0.0534
   1088  C6       -20.2100  -12.7360   24.5050 C.ar   54  DT54        0.0824
   1089  C7       -22.3750  -12.1860   23.4330 C.3    54  DT54        0.0377
   1090  P        -20.8750  -16.1880   28.3980 P.3    55  DC55        0.2141
   1091  OP1      -21.5040  -17.3400   29.0820 O.3    55  DC55       -0.4373
   1092  OP2      -21.5640  -15.4930   27.2860 O.2    55  DC55       -0.5172
   1093  O5'      -20.6040  -15.0360   29.4750 O.3    55  DC55       -0.3114
   1094  C5'      -19.7550  -15.3150   30.5760 C.3    55  DC55        0.1811
   1095  C4'      -18.8570  -14.1470   30.8920 C.3    55  DC55        0.1746
   1096  O4'      -18.3900  -13.5460   29.6570 O.3    55  DC55       -0.3327
   1097  C3'      -19.5030  -12.9900   31.6360 C.3    55  DC55        0.1558
   1098  O3'      -19.6120  -13.2220   33.0290 O.3    55  DC55       -0.3138
   1099  C2'      -18.5980  -11.8190   31.2720 C.3    55  DC55        0.0866
   1100  C1'      -18.2540  -12.1520   29.8220 C.3    55  DC55        0.2106
   1101  N1       -19.1980  -11.4060   28.9390 N.ar   55  DC55       -0.2556
   1102  C2       -18.9560  -10.0530   28.6730 C.ar   55  DC55        0.3531
   1103  O2       -17.9880   -9.5000   29.2230 O.2    55  DC55       -0.2443
   1104  N3       -19.7800   -9.3890   27.8290 N.ar   55  DC55       -0.1739
   1105  C4       -20.8080  -10.0230   27.2620 C.ar   55  DC55        0.1759
   1106  N4       -21.5930   -9.3270   26.4370 N.pl3  55  DC55       -0.1070
   1107  C5       -21.0710  -11.3930   27.5190 C.ar   55  DC55        0.0566
   1108  C6       -20.2540  -12.0460   28.3530 C.ar   55  DC55        0.0849
   1109  P        -20.7670  -12.6670   33.8160 P.3    56  DT56        0.2141
   1110  OP1      -20.6830  -13.0050   35.2520 O.3    56  DT56       -0.4373
   1111  OP2      -21.9530  -13.0120   33.0090 O.2    56  DT56       -0.5172
   1112  O5'      -20.5640  -11.0820   33.6350 O.3    56  DT56       -0.3114
   1113  C5'      -19.5890  -10.3910   34.3770 C.3    56  DT56        0.1811
   1114  C4'      -19.3890   -8.9710   33.8890 C.3    56  DT56        0.1746
   1115  O4'      -19.2490   -8.9090   32.4420 O.3    56  DT56       -0.3327
   1116  C3'      -20.5250   -7.9910   34.1430 C.3    56  DT56        0.1558
   1117  O3'      -20.6090   -7.5860   35.5020 O.3    56  DT56       -0.3138
   1118  C2'      -20.0090   -6.8390   33.3110 C.3    56  DT56        0.0866
   1119  C1'      -19.5030   -7.5480   32.0800 C.3    56  DT56        0.2106
   1120  N1       -20.4020   -7.5020   30.9470 N.ar   56  DT56       -0.2559
   1121  C2       -20.5800   -6.3070   30.2760 C.ar   56  DT56        0.3545
   1122  O2       -20.0440   -5.2680   30.6160 O.2    56  DT56       -0.2443
   1123  N3       -21.4150   -6.3720   29.1860 N.ar   56  DT56       -0.1533
   1124  C4       -22.0740   -7.4870   28.7120 C.ar   56  DT56        0.2804
   1125  O4       -22.7910   -7.3890   27.7190 O.2    56  DT56       -0.2654
   1126  C5       -21.8390   -8.6880   29.4630 C.ar   56  DT56        0.0534
   1127  C6       -21.0320   -8.6530   30.5260 C.ar   56  DT56        0.0824
   1128  C7       -22.5120   -9.9550   29.0260 C.3    56  DT56        0.0377
   1129  P        -21.9820   -7.0480   36.1330 P.3    57  DG57        0.2141
   1130  OP1      -21.8840   -7.1220   37.6120 O.3    57  DG57       -0.4373
   1131  OP2      -23.0910   -7.7240   35.4190 O.2    57  DG57       -0.5172
   1132  O5'      -22.1220   -5.5210   35.6670 O.3    57  DG57       -0.3114
   1133  C5'      -21.1100   -4.5610   35.9390 C.3    57  DG57        0.1811
   1134  C4'      -21.3180   -3.2960   35.1410 C.3    57  DG57        0.1746
   1135  O4'      -21.0170   -3.5410   33.7420 O.3    57  DG57       -0.3327
   1136  C3'      -22.7370   -2.7460   35.1130 C.3    57  DG57        0.1558
   1137  O3'      -23.0890   -1.9980   36.2630 O.3    57  DG57       -0.3138
   1138  C2'      -22.7330   -1.9020   33.8520 C.3    57  DG57        0.0865
   1139  C1'      -21.8840   -2.7770   32.9280 C.3    57  DG57        0.2094
   1140  N9       -22.7040   -3.7020   32.1050 N.ar   57  DG57       -0.2713
   1141  C8       -22.8590   -5.0550   32.2870 C.ar   57  DG57        0.1816
   1142  N7       -23.6360   -5.6090   31.3980 N.ar   57  DG57       -0.2173
   1143  C5       -24.0170   -4.5640   30.5760 C.ar   57  DG57        0.1748
   1144  C6       -24.8600   -4.5470   29.4350 C.ar   57  DG57        0.3023
   1145  O6       -25.4550   -5.4950   28.9080 O.2    57  DG57       -0.2633
   1146  N1       -24.9820   -3.2690   28.8980 N.ar   57  DG57       -0.1709
   1147  C2       -24.3690   -2.1450   29.3980 C.ar   57  DG57        0.2606
   1148  N2       -24.6060   -1.0010   28.7430 N.pl3  57  DG57       -0.0859
   1149  N3       -23.5840   -2.1460   30.4580 N.ar   57  DG57       -0.1918
   1150  C4       -23.4520   -3.3760   30.9970 C.ar   57  DG57        0.1722
   1151  P        -24.5570   -2.1460   36.7490 P.3    58  DC58        0.2141
   1152  OP1      -24.9220   -1.6420   38.0930 O.3    58  DC58       -0.4373
   1153  OP2      -25.0890   -3.4370   36.2510 O.2    58  DC58       -0.5172
   1154  O5'      -25.0370   -1.0930   35.6450 O.3    58  DC58       -0.3114
   1155  C5'      -24.2460    0.0480   35.3560 C.3    58  DC58        0.1811
   1156  C4'      -24.7240    0.7260   34.0990 C.3    58  DC58        0.1746
   1157  O4'      -24.3480   -0.0460   32.9300 O.3    58  DC58       -0.3327
   1158  C3'      -26.2290    0.8530   33.9550 C.3    58  DC58        0.1558
   1159  O3'      -26.7890    1.8700   34.7640 O.3    58  DC58       -0.3138
   1160  C2'      -26.3840    1.0660   32.4560 C.3    58  DC58        0.0866
   1161  C1'      -25.3510    0.0690   31.9390 C.3    58  DC58        0.2106
   1162  N1       -26.1520   -1.2320   31.7650 N.ar   58  DC58       -0.2556
   1163  C2       -27.0200   -1.3980   30.6800 C.ar   58  DC58        0.3531
   1164  O2       -27.2490   -0.4230   29.9440 O.2    58  DC58       -0.2443
   1165  N3       -27.5840   -2.6100   30.4660 N.ar   58  DC58       -0.1739
   1166  C4       -27.3090   -3.6280   31.2830 C.ar   58  DC58        0.1759
   1167  N4       -27.8890   -4.8040   31.0320 N.pl3  58  DC58       -0.1070
   1168  C5       -26.4320   -3.4810   32.3880 C.ar   58  DC58        0.0566
   1169  C6       -25.8770   -2.2820   32.5960 C.ar   58  DC58        0.0849
   1170  P        -27.6080    1.3680   35.7030 P.3    59  DA59        0.2141
   1171  OP1      -27.7220    2.5030   36.6490 O.3    59  DA59       -0.4373
   1172  OP2      -27.5540   -0.0220   36.2350 O.2    59  DA59       -0.5172
   1173  O5'      -28.8360    1.5310   34.7210 O.3    59  DA59       -0.3114
   1174  C5'      -28.9460    2.6970   33.9300 C.3    59  DA59        0.1811
   1175  C4'      -29.9460    2.4680   32.8450 C.3    59  DA59        0.1746
   1176  O4'      -29.4160    1.4910   31.9110 O.3    59  DA59       -0.3327
   1177  C3'      -31.2380    1.8530   33.3410 C.3    59  DA59        0.1558
   1178  O3'      -32.1150    2.8520   33.8430 O.3    59  DA59       -0.3138
   1179  C2'      -31.7640    1.1720   32.0830 C.3    59  DA59        0.0865
   1180  C1'      -30.4690    0.6520   31.4510 C.3    59  DA59        0.2094
   1181  N9       -30.1520   -0.7460   31.8700 N.ar   59  DA59       -0.2714
   1182  C8       -29.3000   -1.2450   32.8210 C.ar   59  DA59        0.1815
   1183  N7       -29.3530   -2.5500   32.9460 N.ar   59  DA59       -0.2193
   1184  C5       -30.3050   -2.9340   32.0150 C.ar   59  DA59        0.1518
   1185  C6       -30.8220   -4.1910   31.6540 C.ar   59  DA59        0.1919
   1186  N6       -30.4330   -5.3390   32.2140 N.pl3  59  DA59       -0.1054
   1187  N1       -31.7640   -4.2270   30.6870 N.ar   59  DA59       -0.2040
   1188  C2       -32.1530   -3.0760   30.1270 C.ar   59  DA59        0.2016
   1189  N3       -31.7410   -1.8360   30.3800 N.ar   59  DA59       -0.2048
   1190  C4       -30.8070   -1.8340   31.3460 C.ar   59  DA59        0.1691
   1191  P        -33.4350    2.4580   34.9940 P.3    60  DC60        0.2141
   1192  OP1      -34.7110    3.0810   35.4370 O.2    60  DC60       -0.5172
   1193  OP2      -32.6420    1.6440   35.9540 O.3    60  DC60       -0.4373
   1194  O5'      -33.7010    1.5480   33.7130 O.3    60  DC60       -0.3115
   1195  C5'      -34.5200    2.0160   32.6280 C.3    60  DC60        0.1785
   1196  C4'      -35.5880    1.0000   32.3260 C.3    60  DC60        0.1473
   1197  O4'      -34.9680   -0.1820   31.7430 O.3    60  DC60       -0.3353
   1198  C3'      -36.3570    0.5070   33.5520 C.3    60  DC60        0.0368
   1199  O3'      -37.6870    0.1900   33.1690 O.3    60  DC60       -0.1270
   1200  C2'      -35.6060   -0.7690   33.9040 C.3    60  DC60        0.0566
   1201  C1'      -35.2990   -1.3120   32.5160 C.3    60  DC60        0.2081
   1202  N1       -34.6340   -2.1380   32.2950 N.ar   60  DC60       -0.2557
   1203  C2       -34.9410   -3.4760   32.0230 C.ar   60  DC60        0.3531
   1204  O2       -35.6330   -3.7400   31.0260 O.2    60  DC60       -0.2443
   1205  N3       -34.4760   -4.4400   32.8530 N.ar   60  DC60       -0.1739
   1206  C4       -33.7380   -4.1090   33.9130 C.ar   60  DC60        0.1759
   1207  N4       -33.3020   -5.0940   34.7030 N.pl3  60  DC60       -0.1070
   1208  C5       -33.4160   -2.7590   34.2060 C.ar   60  DC60        0.0566
   1209  C6       -33.8770   -1.8100   33.3830 C.ar   60  DC60        0.0849
   1210  P        -38.3770    0.5930   33.9470 P.3    61  DA61        0.5677
   1211  OP1      -39.6110    1.4200   33.8190 O.2    61  DA61       -0.2249
   1212  OP2      -37.9920    0.0370   35.2480 O.2    61  DA61       -0.2249
   1213  O5'      -38.3870   -0.5770   32.8620 O.3    61  DA61       -0.2092
   1214  C5'      -38.9530   -1.8480   33.1770 C.3    61  DA61        0.2145
   1215  C4'      -39.6250   -2.4920   31.9660 C.3    61  DA61        0.1755
   1216  O4'      -40.3200   -1.5050   31.1670 O.3    61  DA61       -0.3510
   1217  C3'      -38.8080   -3.3000   30.9670 C.3    61  DA61        0.1539
   1218  O3'      -38.5930   -4.6160   31.5040 O.3    61  DA61       -0.3139
   1219  C2'      -39.7410   -3.3380   29.7500 C.3    61  DA61        0.0646
   1220  C1'      -40.5230   -2.0140   29.8610 C.3    61  DA61        0.1449
   1221  N9       -39.4320   -0.5200   29.1740 N.2    61  DA61       -0.0102
   1222  C8       -39.0410    0.6850   29.6970 C.2    61  DA61        0.3354
   1223  N7       -38.5050    1.4960   28.8150 N.2    61  DA61       -0.2028
   1224  C5       -38.5460    0.7730   27.6330 C.3    61  DA61        0.3315
   1225  C6       -38.1300    1.0760   26.3240 C.2    61  DA61        0.4301
   1226  N6       -37.5670    2.2350   25.9770 N.pl3  61  DA61        0.2140
   1227  N1       -38.3140    0.1340   25.3750 N.2    61  DA61        0.0200
   1228  C2       -38.8780   -1.0280   25.7240 C.2    61  DA61        0.4720
   1229  N3       -39.3110   -1.4280   26.9170 N.2    61  DA61        0.0177
   1230  C4       -39.1130   -0.4700   27.8380 C.2    61  DA61        0.3923
   1231  P        -37.8390   -5.7710   30.9480 P.3    62  DT62        0.2141
   1232  OP1      -37.9770   -7.2370   31.0880 O.2    62  DT62       -0.5172
   1233  OP2      -36.7230   -5.0630   31.6230 O.3    62  DT62       -0.4373
   1234  O5'      -37.8410   -5.3750   29.4030 O.3    62  DT62       -0.3114
   1235  C5'      -38.2390   -6.3530   28.5270 C.3    62  DT62        0.1811
   1236  C4'      -38.1690   -5.8050   27.1260 C.3    62  DT62        0.1746
   1237  O4'      -38.3050   -4.4010   27.2710 O.3    62  DT62       -0.3327
   1238  C3'      -36.8290   -5.8570   26.4790 C.3    62  DT62        0.1558
   1239  O3'      -36.6680   -7.0750   25.8590 O.3    62  DT62       -0.3138
   1240  C2'      -36.9310   -4.7380   25.4830 C.3    62  DT62        0.0866
   1241  C1'      -37.6330   -3.6950   26.2660 C.3    62  DT62        0.2106
   1242  N1       -36.8610   -2.6880   26.9740 N.ar   62  DT62       -0.2559
   1243  C2       -36.1410   -1.7510   26.2590 C.ar   62  DT62        0.3545
   1244  O2       -36.1530   -1.6910   25.0420 O.2    62  DT62       -0.2443
   1245  N3       -35.3990   -0.8810   27.0220 N.ar   62  DT62       -0.1533
   1246  C4       -35.3080   -0.8560   28.3980 C.ar   62  DT62        0.2804
   1247  O4       -34.6000   -0.0120   28.9410 O.2    62  DT62       -0.2654
   1248  C5       -36.0840   -1.8610   29.0690 C.ar   62  DT62        0.0534
   1249  C6       -36.8140   -2.7190   28.3510 C.ar   62  DT62        0.0824
   1250  C7       -36.0510   -1.9160   30.5680 C.3    62  DT62        0.0377
   1251  P        -35.2640   -7.5690   26.2040 P.3    63  DA63        0.2141
   1252  OP1      -35.0580   -8.9080   25.6090 O.2    63  DA63       -0.5172
   1253  OP2      -34.5420   -7.1540   27.4290 O.3    63  DA63       -0.4373
   1254  O5'      -34.8580   -6.4590   25.1320 O.3    63  DA63       -0.3114
   1255  C5'      -35.3970   -6.4400   23.8200 C.3    63  DA63        0.1811
   1256  C4'      -34.7360   -5.3270   23.0590 C.3    63  DA63        0.1746
   1257  O4'      -34.8170   -4.1340   23.8580 O.3    63  DA63       -0.3327
   1258  C3'      -33.2650   -5.5480   22.7390 C.3    63  DA63        0.1558
   1259  O3'      -33.1290   -5.5240   21.3260 O.3    63  DA63       -0.3138
   1260  C2'      -32.4940   -4.4250   23.4260 C.3    63  DA63        0.0865
   1261  C1'      -33.5920   -3.4550   23.8580 C.3    63  DA63        0.2094
   1262  N9       -33.3330   -2.8610   25.0200 N.ar   63  DA63       -0.2714
   1263  C8       -33.2680   -3.4920   26.2360 C.ar   63  DA63        0.1815
   1264  N7       -32.3750   -2.9810   27.0500 N.ar   63  DA63       -0.2193
   1265  C5       -31.8150   -1.9450   26.3190 C.ar   63  DA63        0.1518
   1266  C6       -30.8070   -1.0130   26.6210 C.ar   63  DA63        0.1919
   1267  N6       -30.1610   -0.9740   27.7880 N.pl3  63  DA63       -0.1054
   1268  N1       -30.4830   -0.1110   25.6690 N.ar   63  DA63       -0.2040
   1269  C2       -31.1320   -0.1500   24.5000 C.ar   63  DA63        0.2016
   1270  N3       -32.0960   -0.9760   24.1000 N.ar   63  DA63       -0.2048
   1271  C4       -32.3940   -1.8600   25.0670 C.ar   63  DA63        0.1691
   1272  P        -31.9530   -5.8250   20.6030 P.3    64  DC64        0.2141
   1273  OP1      -32.0610   -6.9470   19.6360 O.2    64  DC64       -0.5172
   1274  OP2      -31.0310   -5.9450   21.7670 O.3    64  DC64       -0.4373
   1275  O5'      -31.5500   -4.5000   19.8100 O.3    64  DC64       -0.3114
   1276  C5'      -30.2220   -3.9940   19.8620 C.3    64  DC64        0.1811
   1277  C4'      -30.2260   -2.5630   20.3480 C.3    64  DC64        0.1746
   1278  O4'      -30.8180   -2.5080   21.6780 O.3    64  DC64       -0.3327
   1279  C3'      -28.8410   -1.9570   20.5220 C.3    64  DC64        0.1558
   1280  O3'      -28.3600   -1.3930   19.3090 O.3    64  DC64       -0.3138
   1281  C2'      -29.0860   -0.9020   21.5890 C.3    64  DC64        0.0866
   1282  C1'      -30.0490   -1.6520   22.5120 C.3    64  DC64        0.2106
   1283  N1       -29.2010   -2.5220   23.6180 N.ar   64  DC64       -0.2556
   1284  C2       -28.6430   -1.8770   24.7280 C.ar   64  DC64        0.3531
   1285  O2       -28.5090   -0.6420   24.6960 O.2    64  DC64       -0.2443
   1286  N3       -28.2650   -2.6150   25.7990 N.ar   64  DC64       -0.1739
   1287  C4       -28.4270   -3.9390   25.7870 C.ar   64  DC64        0.1759
   1288  N4       -28.0400   -4.6250   26.8650 N.pl3  64  DC64       -0.1070
   1289  C5       -28.9910   -4.6110   24.6720 C.ar   64  DC64        0.0566
   1290  C6       -29.3620   -3.8790   23.6170 C.ar   64  DC64        0.0849
   1291  P        -27.0010   -1.3980   19.0880 P.3    65  DC65        0.2141
   1292  OP1      -26.6480   -0.8340   17.7480 O.2    65  DC65       -0.5172
   1293  OP2      -26.6280   -2.8220   19.3790 O.3    65  DC65       -0.4373
   1294  O5'      -26.2940   -0.5370   20.2020 O.3    65  DC65       -0.3114
   1295  C5'      -26.3660    0.8960   20.1000 C.3    65  DC65        0.1811
   1296  C4'      -25.8200    1.4550   21.3700 C.3    65  DC65        0.1746
   1297  O4'      -26.6510    1.0200   22.5020 O.3    65  DC65       -0.3327
   1298  C3'      -24.4270    1.1200   21.8100 C.3    65  DC65        0.1558
   1299  O3'      -23.4920    1.8450   21.0170 O.3    65  DC65       -0.3138
   1300  C2'      -24.4770    1.5950   23.2640 C.3    65  DC65        0.0866
   1301  C1'      -25.8490    1.0350   23.6580 C.3    65  DC65        0.2106
   1302  N1       -25.6300   -0.4370   24.1960 N.ar   65  DC65       -0.2556
   1303  C2       -25.2020   -0.6090   25.5180 C.ar   65  DC65        0.3531
   1304  O2       -24.9060    0.3970   26.1850 O.2    65  DC65       -0.2443
   1305  N3       -25.1240   -1.8600   26.0290 N.ar   65  DC65       -0.1739
   1306  C4       -25.4510   -2.9110   25.2750 C.ar   65  DC65        0.1759
   1307  N4       -25.3580   -4.1250   25.8210 N.pl3  65  DC65       -0.1070
   1308  C5       -25.8870   -2.7580   23.9340 C.ar   65  DC65        0.0566
   1309  C6       -25.9630   -1.5210   23.4330 C.ar   65  DC65        0.0849
   1310  P        -22.0760    1.2600   20.9180 P.3    66  DA66        0.2141
   1311  OP1      -21.3320    2.3190   20.2000 O.2    66  DA66       -0.5172
   1312  OP2      -22.1650   -0.1010   20.3820 O.3    66  DA66       -0.4373
   1313  O5'      -21.4970    1.2200   22.3830 O.3    66  DA66       -0.3114
   1314  C5'      -21.2970    2.4380   23.0800 C.3    66  DA66        0.1811
   1315  C4'      -20.8550    2.1720   24.4980 C.3    66  DA66        0.1746
   1316  O4'      -21.9350    1.4850   25.1760 O.3    66  DA66       -0.3327
   1317  C3'      -19.6930    1.2090   24.6490 C.3    66  DA66        0.1558
   1318  O3'      -18.4060    1.7900   24.4420 O.3    66  DA66       -0.3138
   1319  C2'      -19.8700    0.7510   26.0790 C.3    66  DA66        0.0865
   1320  C1'      -21.3840    0.6020   26.1410 C.3    66  DA66        0.2094
   1321  N9       -21.8110   -0.7700   25.8310 N.ar   66  DA66       -0.2714
   1322  C8       -22.3950   -1.1760   24.6600 C.ar   66  DA66        0.1815
   1323  N7       -22.7330   -2.4440   24.6490 N.ar   66  DA66       -0.2193
   1324  C5       -22.3420   -2.9020   25.8970 C.ar   66  DA66        0.1518
   1325  C6       -22.4240   -4.1650   26.5090 C.ar   66  DA66        0.1919
   1326  N6       -22.9500   -5.2400   25.9180 N.pl3  66  DA66       -0.1054
   1327  N1       -21.9410   -4.2850   27.7640 N.ar   66  DA66       -0.2040
   1328  C2       -21.4150   -3.2070   28.3560 C.ar   66  DA66        0.2016
   1329  N3       -21.2840   -1.9690   27.8840 N.ar   66  DA66       -0.2048
   1330  C4       -21.7720   -1.8830   26.6360 C.ar   66  DA66        0.1691
   1331  P        -17.2250    0.8670   23.9460 P.3    67  DG67        0.2141
   1332  OP1      -16.0710    1.7990   24.0060 O.3    67  DG67       -0.4373
   1333  OP2      -17.1980   -0.2750   22.9960 O.2    67  DG67       -0.5172
   1334  O5'      -17.4510    0.2820   25.4060 O.3    67  DG67       -0.3114
   1335  C5'      -16.5790    0.6360   26.4670 C.3    67  DG67        0.1811
   1336  C4'      -16.1040   -0.6020   27.1850 C.3    67  DG67        0.1746
   1337  O4'      -17.2510   -1.3020   27.7370 O.3    67  DG67       -0.3327
   1338  C3'      -15.4430   -1.6710   26.3280 C.3    67  DG67        0.1558
   1339  O3'      -14.0780   -1.3940   26.0520 O.3    67  DG67       -0.3138
   1340  C2'      -15.5660   -2.8940   27.2210 C.3    67  DG67        0.0865
   1341  C1'      -16.9530   -2.6840   27.8270 C.3    67  DG67        0.2094
   1342  N9       -18.0350   -3.3570   27.0500 N.ar   67  DG67       -0.2713
   1343  C8       -18.8170   -2.9280   26.0060 C.ar   67  DG67        0.1816
   1344  N7       -19.4750   -3.8940   25.4240 N.ar   67  DG67       -0.2173
   1345  C5       -19.1090   -5.0280   26.1250 C.ar   67  DG67        0.1748
   1346  C6       -19.4960   -6.3820   25.9560 C.ar   67  DG67        0.3023
   1347  O6       -20.2730   -6.8580   25.1180 O.2    67  DG67       -0.2633
   1348  N1       -18.8850   -7.2190   26.8850 N.ar   67  DG67       -0.1709
   1349  C2       -18.0080   -6.8010   27.8580 C.ar   67  DG67        0.2606
   1350  N2       -17.5220   -7.7550   28.6640 N.pl3  67  DG67       -0.0859
   1351  N3       -17.6380   -5.5470   28.0270 N.ar   67  DG67       -0.1918
   1352  C4       -18.2190   -4.7170   27.1350 C.ar   67  DG67        0.1722
   1353  P        -13.3210   -2.0530   24.7250 P.3    68  DC68        0.2141
   1354  OP1      -12.0570   -1.3000   24.5560 O.3    68  DC68       -0.4373
   1355  OP2      -14.4380   -1.7860   23.8130 O.2    68  DC68       -0.5172
   1356  O5'      -12.9860   -3.5920   24.6530 O.3    68  DC68       -0.3114
   1357  C5'      -11.9760   -4.1170   25.4790 C.3    68  DC68        0.1811
   1358  C4'      -12.0440   -5.6120   25.4860 C.3    68  DC68        0.1746
   1359  O4'      -13.3220   -6.0180   26.0190 O.3    68  DC68       -0.3327
   1360  C3'      -11.9900   -6.2550   24.1160 C.3    68  DC68        0.1558
   1361  O3'      -10.6230   -6.4210   23.7760 O.3    68  DC68       -0.3138
   1362  C2'      -12.6430   -7.5860   24.3970 C.3    68  DC68        0.0866
   1363  C1'      -13.7480   -7.1940   25.3730 C.3    68  DC68        0.2106
   1364  N1       -15.0320   -6.9410   24.7180 N.ar   68  DC68       -0.2556
   1365  C2       -15.8080   -8.0140   24.2660 C.ar   68  DC68        0.3531
   1366  O2       -15.3510   -9.1660   24.3610 O.2    68  DC68       -0.2443
   1367  N3       -17.0310   -7.7670   23.7390 N.ar   68  DC68       -0.1739
   1368  C4       -17.4810   -6.5150   23.6560 C.ar   68  DC68        0.1759
   1369  N4       -18.6930   -6.3200   23.1290 N.pl3  68  DC68       -0.1070
   1370  C5       -16.7100   -5.4140   24.1080 C.ar   68  DC68        0.0566
   1371  C6       -15.5030   -5.6620   24.6280 C.ar   68  DC68        0.0849
   1372  P        -10.0260   -6.4130   22.1170 P.3    69  DT69        0.2141
   1373  OP1       -8.5810   -6.4110   21.7380 O.3    69  DT69       -0.4373
   1374  OP2      -10.9070   -5.2960   21.6820 O.2    69  DT69       -0.5172
   1375  O5'      -10.7420   -7.7700   21.6550 O.3    69  DT69       -0.3114
   1376  C5'      -10.1070   -9.0510   21.8040 C.3    69  DT69        0.1811
   1377  C4'      -10.8790  -10.1320   21.0630 C.3    69  DT69        0.1746
   1378  O4'      -12.1820  -10.3100   21.6780 O.3    69  DT69       -0.3327
   1379  C3'      -11.2080   -9.8540   19.6030 C.3    69  DT69        0.1558
   1380  O3'      -10.1340  -10.1340   18.7290 O.3    69  DT69       -0.3138
   1381  C2'      -12.4280  -10.7290   19.3430 C.3    69  DT69        0.0866
   1382  C1'      -13.1470  -10.6320   20.6830 C.3    69  DT69        0.2106
   1383  N1       -14.1900   -9.5510   20.6060 N.ar   69  DT69       -0.2559
   1384  C2       -15.3720   -9.8590   19.9590 C.ar   69  DT69        0.3545
   1385  O2       -15.5820  -10.9400   19.4390 O.2    69  DT69       -0.2443
   1386  N3       -16.3040   -8.8500   19.9420 N.ar   69  DT69       -0.1533
   1387  C4       -16.1760   -7.5930   20.4940 C.ar   69  DT69        0.2804
   1388  O4       -17.1040   -6.7930   20.3980 O.2    69  DT69       -0.2654
   1389  C5       -14.9210   -7.3500   21.1470 C.ar   69  DT69        0.0534
   1390  C6       -13.9960   -8.3130   21.1780 C.ar   69  DT69        0.0824
   1391  C7       -14.6850   -6.0100   21.7790 C.3    69  DT69        0.0377
   1392  P         -9.9000   -9.1770   17.4920 P.3    70  DT70        0.2141
   1393  OP1       -8.4290   -9.1640   17.2880 O.3    70  DT70       -0.4373
   1394  OP2      -10.7440   -8.1570   16.7740 O.2    70  DT70       -0.5172
   1395  O5'      -10.3270  -10.5890   16.9110 O.3    70  DT70       -0.3114
   1396  C5'      -10.7960  -10.6890   15.5880 C.3    70  DT70        0.1811
   1397  C4'      -12.0030  -11.5890   15.5300 C.3    70  DT70        0.1746
   1398  O4'      -12.8490  -11.3740   16.6870 O.3    70  DT70       -0.3327
   1399  C3'      -12.9140  -11.2620   14.3710 C.3    70  DT70        0.1558
   1400  O3'      -12.4130  -11.8020   13.1830 O.3    70  DT70       -0.3138
   1401  C2'      -14.2440  -11.8340   14.8210 C.3    70  DT70        0.0866
   1402  C1'      -14.2180  -11.4450   16.3000 C.3    70  DT70        0.2106
   1403  N1       -14.9640  -10.0510   16.3840 N.ar   70  DT70       -0.2559
   1404  C2       -16.3200   -9.9200   16.1540 C.ar   70  DT70        0.3545
   1405  O2       -16.9990  -10.8050   15.6640 O.2    70  DT70       -0.2443
   1406  N3       -16.8570   -8.7090   16.5180 N.ar   70  DT70       -0.1533
   1407  C4       -16.1880   -7.6400   17.0770 C.ar   70  DT70        0.2804
   1408  O4       -16.8090   -6.6160   17.3530 O.2    70  DT70       -0.2654
   1409  C5       -14.7840   -7.8530   17.2840 C.ar   70  DT70        0.0534
   1410  C6       -14.2360   -9.0210   16.9380 C.ar   70  DT70        0.0824
   1411  C7       -13.9690   -6.7480   17.8870 C.3    70  DT70        0.0377
   1412  P        -12.3730  -10.8490   11.8180 P.3    71  DA71        0.2141
   1413  OP1      -11.6070  -11.5190   10.7410 O.2    71  DA71       -0.5172
   1414  OP2      -12.3990   -9.3690   11.8840 O.3    71  DA71       -0.4373
   1415  O5'      -13.8770  -11.3990   11.8070 O.3    71  DA71       -0.3115
   1416  C5'      -14.3970  -12.1010   10.6910 C.3    71  DA71        0.1785
   1417  C4'      -15.6930  -11.4480   10.2660 C.3    71  DA71        0.1473
   1418  O4'      -16.6150  -11.3430   11.3880 O.3    71  DA71       -0.3353
   1419  C3'      -15.5690   -9.9830    9.8980 C.3    71  DA71        0.0368
   1420  O3'      -14.7220   -9.7050    8.7550 O.3    71  DA71       -0.1392
   1421  C2'      -17.0710   -9.7090    9.7960 C.3    71  DA71        0.0566
   1422  C1'      -17.4140  -10.1800   11.2030 C.3    71  DA71        0.2069
   1423  N9       -17.0920   -8.8830   12.0410 N.ar   71  DA71       -0.2715
   1424  C8       -15.9830   -8.5420   12.7710 C.ar   71  DA71        0.1815
   1425  N7       -16.0780   -7.3740   13.3620 N.ar   71  DA71       -0.2193
   1426  C5       -17.3340   -6.9170   12.9940 C.ar   71  DA71        0.1518
   1427  C6       -18.0360   -5.7370   13.2930 C.ar   71  DA71        0.1919
   1428  N6       -17.5500   -4.7630   14.0670 N.pl3  71  DA71       -0.1054
   1429  N1       -19.2700   -5.5910   12.7650 N.ar   71  DA71       -0.2040
   1430  C2       -19.7570   -6.5670   11.9910 C.ar   71  DA71        0.2016
   1431  N3       -19.1940   -7.7210   11.6390 N.ar   71  DA71       -0.2048
   1432  C4       -17.9690   -7.8350   12.1790 C.ar   71  DA71        0.1691
   1433  P        -15.0420  -10.3830    7.5610 P.3    72  DT72        0.3332
   1434  OP1      -14.8320  -11.2710    6.3860 O.3    72  DT72       -0.1650
   1435  OP2      -13.9090   -9.5590    8.0630 O.3    72  DT72       -0.0289
   1436  O5'      -16.2720   -9.4100    7.3110 O.3    72  DT72       -0.2176
   1437  C5'      -17.4480   -9.8640    6.6200 C.3    72  DT72        0.2140
   1438  C4'      -18.2620   -8.6850    6.1600 C.3    72  DT72        0.1776
   1439  O4'      -18.8820   -8.0590    7.3120 O.3    72  DT72       -0.3326
   1440  C3'      -17.4590   -7.5810    5.4860 C.3    72  DT72        0.1559
   1441  O3'      -17.3040   -7.8120    4.0930 O.3    72  DT72       -0.3138
   1442  C2'      -18.3020   -6.3470    5.7570 C.3    72  DT72        0.0866
   1443  C1'      -18.9050   -6.6570    7.1300 C.3    72  DT72        0.2106
   1444  N1       -18.1530   -6.0660    8.2770 N.ar   72  DT72       -0.2559
   1445  C2       -18.3740   -4.7400    8.6010 C.ar   72  DT72        0.3545
   1446  O2       -19.2440   -4.0650    8.0800 O.2    72  DT72       -0.2443
   1447  N3       -17.5340   -4.2290    9.5610 N.ar   72  DT72       -0.1533
   1448  C4       -16.5190   -4.8950   10.2150 C.ar   72  DT72        0.2804
   1449  O4       -15.8480   -4.3010   11.0550 O.2    72  DT72       -0.2654
   1450  C5       -16.3520   -6.2670    9.8230 C.ar   72  DT72        0.0534
   1451  C6       -17.1550   -6.7890    8.8920 C.ar   72  DT72        0.0824
   1452  C7       -15.2720   -7.0770   10.4770 C.3    72  DT72        0.0377
   1453  P        -15.9290   -7.3190    3.3330 P.3    73  DT73        0.2141
   1454  OP1      -15.8260   -7.7860    1.9210 O.2    73  DT73       -0.5172
   1455  OP2      -14.6870   -7.2120    4.1510 O.3    73  DT73       -0.4373
   1456  O5'      -16.6430   -5.8840    3.3060 O.3    73  DT73       -0.3114
   1457  C5'      -17.8440   -5.6620    2.5530 C.3    73  DT73        0.1811
   1458  C4'      -18.4680   -4.3160    2.8980 C.3    73  DT73        0.1746
   1459  O4'      -18.5660   -4.2140    4.3360 O.3    73  DT73       -0.3327
   1460  C3'      -17.7550   -3.0430    2.4580 C.3    73  DT73        0.1558
   1461  O3'      -18.2110   -2.6470    1.1700 O.3    73  DT73       -0.3138
   1462  C2'      -18.2070   -2.0070    3.4820 C.3    73  DT73        0.0866
   1463  C1'      -18.4290   -2.8640    4.7320 C.3    73  DT73        0.2106
   1464  N1       -17.4700   -2.7760    5.6800 N.ar   73  DT73       -0.2559
   1465  C2       -17.3590   -1.6270    6.4400 C.ar   73  DT73        0.3545
   1466  O2       -18.1620   -0.7130    6.3830 O.2    73  DT73       -0.2443
   1467  N3       -16.2670   -1.5850    7.2730 N.ar   73  DT73       -0.1533
   1468  C4       -15.2970   -2.5540    7.4200 C.ar   73  DT73        0.2804
   1469  O4       -14.3750   -2.3730    8.2110 O.2    73  DT73       -0.2654
   1470  C5       -15.4820   -3.7160    6.5970 C.ar   73  DT73        0.0534
   1471  C6       -16.5350   -3.7830    5.7770 C.ar   73  DT73        0.0824
   1472  C7       -14.4780   -4.8270    6.6840 C.3    73  DT73        0.0377
   1473  P        -17.0070   -1.9730   -0.1080 P.3    74  DC74        0.2141
   1474  OP1      -16.9940   -2.0510   -1.5830 O.2    74  DC74       -0.5172
   1475  OP2      -16.0370   -2.7670    0.6690 O.3    74  DC74       -0.4373
   1476  O5'      -16.8740   -0.4700    0.3990 O.3    74  DC74       -0.3114
   1477  C5'      -17.5720    0.5750   -0.2840 C.3    74  DC74        0.1811
   1478  C4'      -17.6160    1.8150    0.5610 C.3    74  DC74        0.1746
   1479  O4'      -17.7770    1.3970    1.9270 O.3    74  DC74       -0.3327
   1480  C3'      -16.3420    2.6130    0.6250 C.3    74  DC74        0.1558
   1481  O3'      -16.2340    3.4640   -0.5000 O.3    74  DC74       -0.3138
   1482  C2'      -16.5540    3.4110    1.8940 C.3    74  DC74        0.0866
   1483  C1'      -17.2160    2.3590    2.7880 C.3    74  DC74        0.2106
   1484  N1       -16.2040    1.6540    3.6150 N.ar   74  DC74       -0.2556
   1485  C2       -15.5730    2.2820    4.6960 C.ar   74  DC74        0.3531
   1486  O2       -15.7910    3.4890    4.8960 O.2    74  DC74       -0.2443
   1487  N3       -14.7460    1.5580    5.4880 N.ar   74  DC74       -0.1739
   1488  C4       -14.5410    0.2650    5.2340 C.ar   74  DC74        0.1759
   1489  N4       -13.7180   -0.4070    6.0420 N.pl3  74  DC74       -0.1070
   1490  C5       -15.1710   -0.3890    4.1440 C.ar   74  DC74        0.0566
   1491  C6       -15.9870    0.3280    3.3640 C.ar   74  DC74        0.0849
   1492  P        -14.8670    3.9080   -0.9910 P.3    75  DA75        0.2141
   1493  OP1      -15.2900    4.7610   -2.1270 O.2    75  DA75       -0.5172
   1494  OP2      -14.0300    2.7060   -1.2350 O.3    75  DA75       -0.4373
   1495  O5'      -14.1240    4.7950    0.1120 O.3    75  DA75       -0.3114
   1496  C5'      -14.5620    6.1090    0.4030 C.3    75  DA75        0.1811
   1497  C4'      -13.7220    6.7000    1.5170 C.3    75  DA75        0.1746
   1498  O4'      -13.8180    5.8680    2.6960 O.3    75  DA75       -0.3327
   1499  C3'      -12.2260    6.7210    1.2750 C.3    75  DA75        0.1558
   1500  O3'      -11.8730    7.7730    0.4150 O.3    75  DA75       -0.3138
   1501  C2'      -11.7120    6.9450    2.6890 C.3    75  DA75        0.0865
   1502  C1'      -12.6320    6.0130    3.4640 C.3    75  DA75        0.2094
   1503  N9       -12.0090    4.6950    3.6530 N.ar   75  DA75       -0.2714
   1504  C8       -12.2290    3.5760    2.8930 C.ar   75  DA75        0.1815
   1505  N7       -11.5160    2.5380    3.2610 N.ar   75  DA75       -0.2193
   1506  C5       -10.7770    3.0070    4.3360 C.ar   75  DA75        0.1518
   1507  C6        -9.8280    2.3930    5.1720 C.ar   75  DA75        0.1919
   1508  N6        -9.4480    1.1190    5.0470 N.pl3  75  DA75       -0.1054
   1509  N1        -9.2770    3.1420    6.1500 N.ar   75  DA75       -0.2040
   1510  C2        -9.6590    4.4180    6.2750 C.ar   75  DA75        0.2016
   1511  N3       -10.5410    5.1060    5.5520 N.ar   75  DA75       -0.2048
   1512  C4       -11.0690    4.3340    4.5880 C.ar   75  DA75        0.1691
   1513  P        -10.8700    7.3970   -0.8770 P.3    76  DA76        0.2141
   1514  OP1      -11.4520    8.5390   -1.6190 O.2    76  DA76       -0.5172
   1515  OP2      -10.4530    6.1780   -1.6090 O.3    76  DA76       -0.4373
   1516  O5'       -9.5400    7.8640   -0.1110 O.3    76  DA76       -0.3114
   1517  C5'       -9.4750    9.1260    0.5440 C.3    76  DA76        0.1811
   1518  C4'       -8.8260    9.0350    1.9060 C.3    76  DA76        0.1746
   1519  O4'       -9.4120    7.9370    2.6480 O.3    76  DA76       -0.3327
   1520  C3'       -7.3300    8.7590    1.9260 C.3    76  DA76        0.1558
   1521  O3'       -6.5710    9.9500    1.8040 O.3    76  DA76       -0.3138
   1522  C2'       -7.1080    8.0390    3.2540 C.3    76  DA76        0.0865
   1523  C1'       -8.4420    7.3250    3.4700 C.3    76  DA76        0.2094
   1524  N9        -8.3370    5.9140    3.1150 N.ar   76  DA76       -0.2714
   1525  C8        -8.8290    5.3210    1.9820 C.ar   76  DA76        0.1815
   1526  N7        -8.6010    4.0310    1.9180 N.ar   76  DA76       -0.2193
   1527  C5        -7.9110    3.7580    3.0890 C.ar   76  DA76        0.1518
   1528  C6        -7.3810    2.5690    3.6190 C.ar   76  DA76        0.1919
   1529  N6        -7.4710    1.3830    3.0110 N.pl3  76  DA76       -0.1054
   1530  N1        -6.7490    2.6410    4.8100 N.ar   76  DA76       -0.2040
   1531  C2        -6.6600    3.8290    5.4190 C.ar   76  DA76        0.2016
   1532  N3        -7.1170    5.0140    5.0210 N.ar   76  DA76       -0.2048
   1533  C4        -7.7390    4.9080    3.8350 C.ar   76  DA76        0.1691
   1534  P         -5.2060   10.0510    0.8020 P.3    77  DT77        0.2141
   1535  OP1       -5.1470   11.1900   -0.1420 O.2    77  DT77       -0.5172
   1536  OP2       -5.5690    8.6990    0.3220 O.3    77  DT77       -0.4373
   1537  O5'       -3.8170    9.9400    1.5780 O.3    77  DT77       -0.3114
   1538  C5'       -3.6530   10.6680    2.7790 C.3    77  DT77        0.1812
   1539  C4'       -3.2990    9.7400    3.9210 C.3    77  DT77        0.1775
   1540  O4'       -4.3570    8.7790    4.1520 O.3    77  DT77       -0.3326
   1541  C3'       -2.1140    8.8340    3.6740 C.3    77  DT77        0.1863
   1542  O3'       -0.8900    9.5590    3.7050 O.3    77  DT77       -0.1981
   1543  C2'       -2.2840    7.9080    4.8690 C.3    77  DT77        0.0895
   1544  C1'       -3.7910    7.6580    4.8190 C.3    77  DT77        0.2107
   1545  N1        -4.0240    6.4650    4.1800 N.ar   77  DT77       -0.2559
   1546  C2        -3.7810    5.2220    4.7320 C.ar   77  DT77        0.3545
   1547  O2        -3.2230    5.0680    5.8040 O.2    77  DT77       -0.2443
   1548  N3        -4.2160    4.1570    3.9800 N.ar   77  DT77       -0.1533
   1549  C4        -4.8540    4.2110    2.7580 C.ar   77  DT77        0.2804
   1550  O4        -5.1860    3.1660    2.2030 O.2    77  DT77       -0.2654
   1551  C5        -5.0690    5.5370    2.2510 C.ar   77  DT77        0.0534
   1552  C6        -4.6560    6.5900    2.9620 C.ar   77  DT77        0.0824
   1553  C7        -5.7560    5.7010    0.9270 C.3    77  DT77        0.0377
   1554  P         -0.2610    9.8390    3.8640 P.3    78  DT78        0.1945
   1555  OP1       -1.5850    9.4860    4.4420 O.3    78  DT78       -0.2170
   1556  OP2        0.5560   10.9120    4.4950 O.3    78  DT78        0.0000
   1557  O5'        0.6460    8.5300    3.7760 O.3    78  DT78       -0.2176
   1558  C5'        0.8870    7.7520    4.9380 C.3    78  DT78        0.2140
   1559  C4'        1.3820    6.3740    4.5700 C.3    78  DT78        0.1783
   1560  O4'        2.8020    6.4320    4.2500 O.3    78  DT78       -0.3509
   1561  C3'        1.2990    5.4090    5.7410 C.3    78  DT78        0.1840
   1562  O3'        0.0070    4.8300    5.8360 O.3    78  DT78       -0.2204
   1563  C2'        2.4180    4.4190    5.4510 C.3    78  DT78        0.0676
   1564  C1'        3.4830    5.3440    4.8600 C.3    78  DT78        0.1450
   1565  N1        -0.8410    4.3420    3.1180 N.2    78  DT78       -0.1608
   1566  C2        -1.2190    3.0870    2.6790 C.1    78  DT78        0.2395
   1567  O2        -0.7350    2.0580    3.1150 O.2    78  DT78       -0.2041
   1568  N3        -2.1880    3.0800    1.7050 N.am   78  DT78       -0.0881
   1569  C4        -2.8030    4.1770    1.1380 C.2    78  DT78        0.2768
   1570  O4        -3.6580    4.0100    0.2720 O.2    78  DT78       -0.2676
   1571  C5        -2.3560    5.4430    1.6460 C.2    78  DT78        0.0541
   1572  C6        -1.4150    5.4800    2.5930 C.2    78  DT78        0.1126
   1573  C7        -2.9650    6.6970    1.0920 C.3    78  DT78        0.0376
@<TRIPOS>BOND
     1   459   458    2
     2   425   424    2
     3   444   443    1
     4   444   432    1
     5   458   457   ar
     6   458   460   ar
     7   456   457   ar
     8   456   455   ar
     9   445   443    1
    10   457   464   ar
    11   428   429    1
    12   428   427    1
    13   443   446    1
    14   460   461   ar
    15   432   431    1
    16   481   480    1
    17   412   424    1
    18   412   411    1
    19   455   454   ar
    20   424   427    1
    21   424   426    1
    22   429   431    1
    23   429   430    1
    24   464   454   ar
    25   464   463   ar
    26   431   433    1
    27   446   447    1
    28   454   453    1
    29   461   463   ar
    30   461   462    1
    31   480   479   ar
    32   480   482   ar
    33   409   411    1
    34   409   408    1
    35   409   410    1
    36   411   413    1
    37   479   477   ar
    38   408   407    1
    39   413   414    1
    40   430   434    1
    41   449   453    1
    42   449   448    1
    43   482   483   ar
    44   447   448    1
    45   453   452    1
    46   433   434    1
    47   410   414    1
    48   414   415    1
    49   477   478    2
    50   477   476   ar
    51   405   404    2
    52   510   511    1
    53   510   509    1
    54   510   512    1
    55   511   515    1
    56   529   530    1
    57   529   528    1
    58   530   531    1
    59   530   532    1
    60   407   404    1
    61   434   435    1
    62   448   450    1
    63   513   512    1
    64   513   525    1
    65   531   535    1
    66   514   515    1
    67   514   512    1
    68   515   516    1
    69   483   476   ar
    70   509   508    1
    71   476   475    1
    72   450   452    1
    73   450   451    1
    74   526   525    2
    75   404   391    1
    76   404   406    1
    77   533   532    1
    78   533   545    1
    79   442   435   ar
    80   442   441   ar
    81   518   517    2
    82   417   416    2
    83   535   534    1
    84   535   536    1
    85   435   436   ar
    86   391   390    1
    87   528   525    1
    88   532   534    1
    89   415   416   ar
    90   415   422   ar
    91   525   527    1
    92   546   545    2
    93   392   390    1
    94   392   393    1
    95   516   517   ar
    96   516   523   ar
    97   416   418   ar
    98   467   465    2
    99   490   489    1
   100   490   494    1
   101   475   471    1
   102   475   474    1
   103   503   502   ar
   104   503   504   ar
   105   517   519   ar
   106   441   439   ar
   107   508   505    1
   108   422   421   ar
   109   451   465    1
   110   545   548    1
   111   545   547    1
   112   492   505    1
   113   492   491    1
   114   549   548    1
   115   549   550    1
   116   502   501   ar
   117   489   491    1
   118   489   488    1
   119   390   388    1
   120   536   543   ar
   121   536   537   ar
   122   471   470    1
   123   494   495    1
   124   494   493    1
   125   506   505    2
   126   436   437    2
   127   436   438   ar
   128   402   401   ar
   129   402   403   ar
   130   543   542   ar
   131   401   400   ar
   132   465   468    1
   133   465   466    1
   134   504   495   ar
   135   504   498   ar
   136   523   522   ar
   137   495   496   ar
   138   393   389    1
   139   393   394    1
   140   468   469    1
   141   505   507    1
   142   388   389    1
   143   388   387    1
   144   538   537    2
   145   491   493    1
   146   418   419   ar
   147   474   472    1
   148   550   551    1
   149   550   552    1
   150   488   487    1
   151   537   539   ar
   152   551   555    1
   153   439   438   ar
   154   439   440    1
   155   519   520   ar
   156   501   499   ar
   157   421   419   ar
   158   421   423    1
   159   403   394   ar
   160   403   397   ar
   161   542   544    1
   162   542   540   ar
   163   470   469    1
   164   470   472    1
   165   400   398   ar
   166   394   395   ar
   167   472   473    1
   168   419   420    2
   169   387   386    1
   170   498   499   ar
   171   498   497   ar
   172   496   497   ar
   173   522   520   ar
   174   522   524    1
   175   499   500    1
   176   539   540   ar
   177   520   521    2
   178   487   484    1
   179   555   556    1
   180   555   554    1
   181   552   553    1
   182   552   554    1
   183   540   541    2
   184   553   566    1
   185   397   398   ar
   186   397   396   ar
   187   398   399    1
   188   557   556   ar
   189   557   558   ar
   190   395   396   ar
   191   556   565   ar
   192   386   383    1
   193   473   484    1
   194   484   485    2
   195   484   486    1
   196   380   381   ar
   197   380   379   ar
   198   558   559   ar
   199   262   261    2
   200   381   382   ar
   201   379   377   ar
   202   384   383    2
   203   566   567    2
   204   566   568    1
   205   566   569    1
   206   565   559   ar
   207   565   564   ar
   208   371   369    1
   209   371   372    1
   210   370   383    1
   211   370   369    1
   212   383   385    1
   213   559   560   ar
   214   564   563   ar
   215   569   570    1
   216   242   241    2
   217   382   376   ar
   218   382   373   ar
   219   377   378    1
   220   377   376   ar
   221   369   367    1
   222   261   263    1
   223   261   249    1
   224   261   264    1
   225   570   571    1
   226   376   375   ar
   227   560   561    1
   228   560   562   ar
   229   372   373    1
   230   372   368    1
   231   373   374   ar
   232   563   562   ar
   233   249   248    1
   234   281   280    2
   235   265   264    1
   236   265   266    1
   237   245   244    1
   238   245   246    1
   239   282   280    1
   240   241   244    1
   241   241   229    1
   242   241   243    1
   243   583   584   ar
   244   583   581   ar
   245   367   368    1
   246   367   366    1
   247   572   571    1
   248   572   576    1
   249   584   577   ar
   250   375   374   ar
   251   571   573    1
   252   229   228    1
   253   280   269    1
   254   280   283    1
   255   248   246    1
   256   248   250    1
   257   246   247    1
   258   582   581    1
   259   269   268    1
   260   581   580   ar
   261   577   576    1
   262   577   578   ar
   263   266   268    1
   264   266   267    1
   265   366   365    1
   266   576   575    1
   267   573   574    1
   268   573   575    1
   269   365   362    1
   270   222   221    2
   271   268   270    1
   272   225   226    1
   273   225   224    1
   274   228   226    1
   275   228   230    1
   276   358   357    2
   277   574   585    1
   278   283   284    1
   279   580   578   ar
   280   250   251    1
   281   356   357   ar
   282   356   354   ar
   283   578   579    2
   284   226   227    1
   285   247   251    1
   286   267   271    1
   287   587   585    2
   288   355   354    2
   289   224   221    1
   290   357   359   ar
   291   303   301    2
   292   284   285    1
   293   221   223    1
   294   221   208    1
   295   364   362    2
   296   354   353   ar
   297   362   363    1
   298   362   350    1
   299   585   586    1
   300   585   588    1
   301   230   231    1
   302   338   337    2
   303   279   278   ar
   304   279   272   ar
   305   251   252    1
   306   270   271    1
   307   351   349    1
   308   351   352    1
   309   259   252   ar
   310   259   258   ar
   311   278   276   ar
   312   350   349    1
   313   271   272    1
   314   260   258    1
   315   359   361    1
   316   359   360   ar
   317   301   302    1
   318   301   288    1
   319   301   304    1
   320   227   231    1
   321   353   360   ar
   322   353   352    1
   323   208   207    1
   324   349   347    1
   325   588   589    1
   326   272   273   ar
   327   252   253   ar
   328   288   287    1
   329   293   292   ar
   330   293   294   ar
   331   337   336   ar
   332   337   339   ar
   333   258   256   ar
   334   292   291   ar
   335   285   287    1
   336   285   286    1
   337   231   232    1
   338   602   603   ar
   339   602   600   ar
   340   352   348    1
   341   287   289    1
   342   601   600    1
   343   341   339    1
   344   589   590    1
   345   336   334   ar
   346   276   277    1
   347   276   275   ar
   348   603   596   ar
   349   286   290    1
   350   600   599   ar
   351   339   340   ar
   352   317   316    1
   353   239   232   ar
   354   239   238   ar
   355   304   305    1
   356   314   313   ar
   357   314   315   ar
   358   232   233   ar
   359   273   275   ar
   360   273   274    2
   361   277   296    1
   362   207   209    1
   363   207   205    1
   364   253   254    2
   365   253   255   ar
   366   296   295    2
   367   347   348    1
   368   347   346    1
   369   291   290    1
   370   291   300   ar
   371   294   295   ar
   372   294   300   ar
   373   209   210    1
   374   256   255   ar
   375   256   257    2
   376   702   703   ar
   377   702   700   ar
   378   620   619    2
   379   703   704   ar
   380   240   238    1
   381   324   322    2
   382   313   312   ar
   383   238   236   ar
   384   289   290    1
   385   623   621    1
   386   345   346    1
   387   345   342    1
   388   591   590    1
   389   591   595    1
   390   233   234    2
   391   233   235   ar
   392   334   335    2
   393   334   333   ar
   394   596   597   ar
   395   596   595    1
   396   295   297   ar
   397   316   315   ar
   398   316   318   ar
   399   590   592    1
   400   315   321   ar
   401   599   597   ar
   402   340   333   ar
   403   305   306    1
   404   344   342    2
   405   719   718    2
   406   205   204    1
   407   205   206    1
   408   300   299   ar
   409   704   705   ar
   410   619   621   ar
   411   619   618   ar
   412   236   235   ar
   413   236   237    2
   414   701   700    1
   415   204   203    1
   416   700   699   ar
   417   333   332    1
   418   597   598    2
   419   738   737    2
   420   621   622   ar
   421   342   343    1
   422   342   330    1
   423   595   594    1
   424   592   593    1
   425   592   594    1
   426   735   731    1
   427   735   734    1
   428   735   736    1
   429   731   730    1
   430   210   206    1
   431   210   211    1
   432   312   321   ar
   433   312   311    1
   434   734   732    1
   435   201   200    2
   436   322   325    1
   437   322   309    1
   438   322   323    1
   439   203   200    1
   440   318   319   ar
   441   308   306    1
   442   308   309    1
   443   308   310    1
   444   321   320   ar
   445   718   720   ar
   446   718   717   ar
   447   297   298   ar
   448   730   732    1
   449   730   729    1
   450   306   307    1
   451   593   604    1
   452   325   326    1
   453   618   616   ar
   454   299   298   ar
   455   705   699   ar
   456   705   696   ar
   457   606   604    2
   458   307   311    1
   459   605   604    1
   460   331   329    1
   461   331   332    1
   462   699   698   ar
   463   211   220   ar
   464   211   212   ar
   465   720   721   ar
   466   737   736   ar
   467   737   739   ar
   468   219   220   ar
   469   219   218   ar
   470   329   330    1
   471   329   327    1
   472   604   607    1
   473   716   715    1
   474   716   717    1
   475   716   712    1
   476   622   615   ar
   477   736   743   ar
   478   640   639    2
   479   332   328    1
   480   733   732    1
   481   733   744    1
   482   200   202    1
   483   200   188    1
   484   311   310    1
   485   220   214   ar
   486   750   749    1
   487   750   754    1
   488   212   213   ar
   489   715   713    1
   490   218   217   ar
   491   717   724   ar
   492   749   748    1
   493   749   751    1
   494   729   728    1
   495   319   320   ar
   496   748   747    1
   497   661   662   ar
   498   661   659   ar
   499   739   740   ar
   500   616   615   ar
   501   616   617    2
   502   754   753    1
   503   754   755    1
   504   328   327    1
   505   214   213   ar
   506   214   215   ar
   507   696   695    1
   508   696   697   ar
   509   712   711    1
   510   662   663   ar
   511   615   614    1
   512   745   744    2
   513   326   327    1
   514   188   187    1
   515   698   697   ar
   516   217   215   ar
   517   639   638   ar
   518   639   641   ar
   519   721   722    1
   520   721   723   ar
   521   743   742   ar
   522   695   694    1
   523   695   691    1
   524   660   659    1
   525   215   216    1
   526   744   747    1
   527   744   746    1
   528   753   751    1
   529   638   636   ar
   530   659   658   ar
   531   607   608    1
   532   724   723   ar
   533   728   725    1
   534   751   752    1
   535   643   641    1
   536   711   713    1
   537   711   710    1
   538   752   765    1
   539   610   614    1
   540   610   609    1
   541   713   714    1
   542   740   742   ar
   543   740   741    1
   544   189   187    1
   545   189   190    1
   546   755   756   ar
   547   755   764   ar
   548   663   664   ar
   549   694   692    1
   550   678   677    2
   551   641   642   ar
   552   614   613    1
   553   691   690    1
   554   714   725    1
   555   187   185    1
   556   756   757   ar
   557   763   764   ar
   558   763   762   ar
   559   608   609    1
   560   766   765    2
   561   764   758   ar
   562   636   637    2
   563   636   635   ar
   564   658   664   ar
   565   658   657   ar
   566   725   726    2
   567   725   727    1
   568   664   655   ar
   569   677   679   ar
   570   677   676   ar
   571   193   192    2
   572   765   768    1
   573   765   767    1
   574   609   611    1
   575   769   768    1
   576   769   770    1
   577   710   709    1
   578   675   674    1
   579   675   671    1
   580   675   676    1
   581   642   635   ar
   582   679   680   ar
   583   762   761   ar
   584   757   758   ar
   585   185   186    1
   586   185   184    1
   587   190   191    1
   588   190   186    1
   589   690   692    1
   590   690   689    1
   591   674   672    1
   592   758   759   ar
   593   692   693    1
   594   635   634    1
   595   613   611    1
   596   671   670    1
   597   771   770    1
   598   771   775    1
   599   676   683   ar
   600   657   656   ar
   601   611   612    1
   602   192   191   ar
   603   192   194   ar
   604   709   706    1
   605   770   772    1
   606   655   656   ar
   607   655   654    1
   608   191   198   ar
   609   761   759   ar
   610   759   760    1
   611   680   681    2
   612   680   682   ar
   613   184   183    1
   614   693   706    1
   615   670   672    1
   616   670   669    1
   617   689   688    1
   618   194   195   ar
   619   654   653    1
   620   654   650    1
   621   672   687    1
   622   683   682   ar
   623   634   630    1
   624   634   633    1
   625   688   673    1
   626   626   624    2
   627   673   685    1
   628   775   776    1
   629   775   774    1
   630   198   197   ar
   631   682   684    1
   632   706   708    2
   633   706   707    1
   634   183   180    1
   635   612   624    1
   636   630   629    1
   637   777   776   ar
   638   777   778   ar
   639   653   651    1
   640   772   773    1
   641   772   774    1
   642   195   197   ar
   643   195   196    2
   644   776   786   ar
   645   669   668    1
   646   650   649    1
   647   197   199    1
   648   773   787    1
   649   624   627    1
   650   624   625    1
   651   627   628    1
   652   633   631    1
   653   181   180    2
   654   778   779   ar
   655    61    60    2
   656   685   687    1
   657   685   686    2
   658   173   172    2
   659   180   182    1
   660   180   168    1
   661   668   665    1
   662   629   631    1
   663   629   628    1
   664   786   779   ar
   665   786   785   ar
   666   631   632    1
   667   651   649    1
   668   651   652    1
   669   779   780   ar
   670   649   648    1
   671   788   787    2
   672   787   789    1
   673   787   790    1
   674    43    42    1
   675    43    44    1
   676   172   174   ar
   677   172   171   ar
   678   169   167    1
   679   169   170    1
   680   785   783   ar
   681   168   167    1
   682    47    60    1
   683    47    46    1
   684   174   175   ar
   685    60    62    1
   686    60    63    1
   687    40    39    2
   688   647   648    1
   689   647   644    1
   690    42    39    1
   691   652   665    1
   692    44    46    1
   693    44    45    1
   694   665   667    2
   695   665   666    1
   696   167   165    1
   697   780   781    2
   698   780   782   ar
   699   646   644    2
   700   171   170    1
   701   171   178   ar
   702   632   644    1
   703   790   791    1
   704   783   782   ar
   705   783   784    1
   706   176   175    2
   707   175   177   ar
   708   791   792    1
   709   170   166    1
   710    46    48    1
   711    39    27    1
   712    39    41    1
   713    64    63    1
   714    64    65    1
   715   644   645    1
   716    45    49    1
   717    48    49    1
   718   793   792    1
   719   793   797    1
   720   178   177   ar
   721   804   805   ar
   722   804   802   ar
   723   177   179    1
   724   165   166    1
   725   165   164    1
   726    27    26    1
   727   805   798   ar
   728   792   794    1
   729    65    67    1
   730    65    66    1
   731    49    50    1
   732   803   802    1
   733    20    19    2
   734   802   801   ar
   735   798   797    1
   736   798   799   ar
   737    68    67    1
   738    68    79    1
   739   164   163    1
   740   797   796    1
   741    81    79    2
   742   157   156    1
   743    80    79    1
   744    67    69    1
   745    79    82    1
   746   163   160    1
   747    26    24    1
   748    26    28    1
   749    66    70    1
   750    23    24    1
   751    23    22    1
   752   155   156   ar
   753   155   153   ar
   754   794   796    1
   755   794   795    1
   756    24    25    1
   757   801   799   ar
   758   154   153    2
   759   799   800    2
   760    50    51   ar
   761    50    59   ar
   762   156   158   ar
   763    51    52   ar
   764   153   152   ar
   765    28    29    1
   766   162   160    2
   767   135   134    2
   768   795   806    1
   769    19    22    1
   770    19    21    1
   771    19     6    1
   772   160   161    1
   773   160   149    1
   774    69    70    1
   775    78    77   ar
   776    78    71   ar
   777    70    71    1
   778   158   159   ar
   779    82    83    1
   780    25    29    1
   781   150   148    1
   782   150   151    1
   783   152   159   ar
   784   152   151    1
   785    59    58   ar
   786    59    53   ar
   787   100    98    2
   788   825   823    1
   789   149   148    1
   790   134   136   ar
   791   134   133   ar
   792    52    53   ar
   793     6     5    1
   794    29    30    1
   795    58    57   ar
   796    77    75   ar
   797   806   807    2
   798   806   808    1
   799   806   809    1
   800    71    72   ar
   801   148   146    1
   802   136   137   ar
   803    83    84    1
   804    99    98    1
   805   151   147    1
   806    53    54   ar
   807   132   133   ar
   808   132   131   ar
   809   133   140   ar
   810   822   821    2
   811    98    87    1
   812    98   101    1
   813   823   821   ar
   814   823   824   ar
   815   143   141    2
   816   809   810    1
   817    96    97   ar
   818    96    94   ar
   819   121   119    2
   820  1493  1492    2
   821   821   820   ar
   822     5     7    1
   823     5     3    1
   824    87    86    1
   825   137   138    1
   826   137   139   ar
   827    57    56   ar
   828   824   817   ar
   829    97    90   ar
   830   114   113    1
   831    75    74   ar
   832    75    76    1
   833    72    73    2
   834    72    74   ar
   835    32    31    2
   836    86    84    1
   837    86    88    1
   838    30    31   am
   839    30    37    1
   840     7    37    1
   841     7     8    1
   842   146   147    1
   843   146   145    1
   844    84    85    1
   845   144   141    1
   846   144   145    1
   847   101   102    1
   848  1514  1513    2
   849  1515  1513    1
   850    95    94    1
   851  1474  1473    2
   852   131   130   ar
   853   111   110   ar
   854   111   112   ar
   855   140   139   ar
   856   140   130   ar
   857   141   142    1
   858   141   127    1
   859    54    56   ar
   860    54    55    2
   861   812   816    1
   862   812   811    1
   863    94    93   ar
   864  1494  1492    1
   865    31    33   am
   866   820   818   ar
   867     3     2    1
   868     3     4    1
   869    37    36    1
   870  1492  1481    1
   871  1492  1495    1
   872   817   816    1
   873   817   818   ar
   874   810   811    1
   875    85    89    1
   876   110   109   ar
   877     2     1    1
   878  1513  1516    1
   879  1513  1500    1
   880   130   129    1
   881   113   112   ar
   882   113   115   ar
   883   112   118   ar
   884   119   120    1
   885   119   122    1
   886   119   106    1
   887   816   815    1
   888   102   103    1
   889   818   819    2
   890    90    89    1
   891    90    91   ar
   892  1481  1480    1
   893    88    89    1
   894    55    16    1
   895   811   813    1
   896   126   127    1
   897   126   128    1
   898   126   124    1
   899  1477  1476    1
   900  1477  1478    1
   901   842   841    2
   902     8     4    1
   903     8     9    1
   904     8    38    1
   905  1535  1534    2
   906  1516  1517    1
   907  1473  1476    1
   908  1473  1475    1
   909  1473  1461    1
   910    17    16    2
   911    17    18    1
   912   122   123    1
   913   128   129    1
   914    93    91   ar
   915  1495  1496    1
   916   115   116   ar
   917    33    34   am
   918   105   106    1
   919   105   103    1
   920   105   107    1
   921   109   118   ar
   922   109   108    1
   923  1570  1569    2
   924  1536  1534    1
   925    36    34    1
   926    36    38    1
   927   129   125    1
   928   118   117   ar
   929  1496  1497    1
   930    91    92    2
   931    16    15    2
   932  1500  1499    1
   933   845   843    1
   934     9    18    1
   935     9    38    1
   936     9    10    1
   937   103   104    1
   938   841   843   ar
   939   841   840   ar
   940  1517  1518    1
   941  1478  1480    1
   942  1478  1479    1
   943  1480  1482    1
   944    18    12    2
   945   815   813    1
   946   813   814    1
   947   125   124    1
   948  1534  1537    1
   949  1534  1521    1
   950   104   108    1
   951   124   123    1
   952  1553  1551    1
   953   843   844   ar
   954    34    35    2
   955  1573  1571    1
   956   840   838   ar
   957   116   117   ar
   958  1569  1571    1
   959  1569  1568   am
   960  1461  1460    1
   961   107   108    1
   962  1499  1497    1
   963  1499  1501    1
   964    15    13    1
   965    10    11    2
   966   828   826    2
   967  1497  1498    1
   968  1537  1538    1
   969  1571  1572    2
   970    12    13    1
   971    12    11    1
   972  1568  1566   am
   973  1521  1520    1
   974   844   837   ar
   975  1482  1483    1
   976  1518  1520    1
   977  1518  1519    1
   978  1526  1525   ar
   979  1526  1527   ar
   980  1454  1453    2
   981  1520  1522    1
   982  1479  1483    1
   983   814   826    1
   984  1525  1524   ar
   985   838   837   ar
   986   838   839    2
   987    13    14    2
   988  1550  1549    2
   989  1551  1549   ar
   990  1551  1552   ar
   991   826   827    1
   992   826   829    1
   993   837   836    1
   994  1460  1458    1
   995  1460  1462    1
   996  1457  1458    1
   997  1457  1456    1
   998  1572  1565    1
   999  1519  1523    1
  1000  1566  1567    2
  1001  1566  1565    2
  1002  1501  1502    1
  1003  1498  1502    1
  1004  1549  1548   ar
  1005  1538  1539    1
  1006  1483  1484    1
  1007  1504  1505   ar
  1008  1504  1503   ar
  1009  1458  1459    1
  1010  1552  1545   ar
  1011   832   836    1
  1012   832   831    1
  1013  1529  1528    1
  1014    14   862    1
  1015  1527  1528   ar
  1016  1527  1533   ar
  1017  1524  1523    1
  1018  1524  1533   ar
  1019   836   835    1
  1020   862   861    2
  1021  1522  1523    1
  1022  1505  1506   ar
  1023  1456  1453    1
  1024  1453  1441    1
  1025  1453  1455    1
  1026  1491  1484   ar
  1027  1491  1490   ar
  1028  1502  1503    1
  1029  1462  1463    1
  1030   829   830    1
  1031  1484  1485   ar
  1032  1528  1530   ar
  1033  1503  1512   ar
  1034  1541  1539    1
  1035  1541  1555    1
  1036  1541  1543    1
  1037  1542  1554    1
  1038  1542  1555    1
  1039  1557  1558    1
  1040  1533  1532   ar
  1041  1539  1540    1
  1042  1548  1546   ar
  1043  1441  1440    1
  1044   861   863   ar
  1045   861   860   ar
  1046  1490  1488   ar
  1047  1540  1544    1
  1048  1545  1546   ar
  1049  1545  1544    1
  1050   830   831    1
  1051  1560  1559    1
  1052  1560  1564    1
  1053   831   833    1
  1054  1506  1512   ar
  1055  1506  1507   ar
  1056  1459  1463    1
  1057   863   864   ar
  1058  1559  1558    1
  1059  1559  1561    1
  1060  1512  1511   ar
  1061   835   833    1
  1062   859   860   ar
  1063   859   858   ar
  1064  1485  1486    2
  1065  1485  1487   ar
  1066   860   866   ar
  1067  1463  1464    1
  1068  1546  1547    2
  1069  1530  1531   ar
  1070  1544  1543    1
  1071  1564  1563    1
  1072   833   834    1
  1073  1532  1531   ar
  1074  1508  1507    1
  1075  1507  1509   ar
  1076  1488  1487   ar
  1077  1488  1489    1
  1078   864   865   ar
  1079   858   857   ar
  1080  1563  1561    1
  1081  1440  1442    1
  1082  1440  1438    1
  1083  1511  1510   ar
  1084   883   882    2
  1085   866   865   ar
  1086   866   857   ar
  1087  1464  1471   ar
  1088  1464  1465   ar
  1089  1561  1562    1
  1090  1442  1443    1
  1091  1471  1470   ar
  1092   848   846    2
  1093   857   856    1
  1094  1509  1510   ar
  1095  1438  1437    1
  1096  1438  1439    1
  1097   882   881   ar
  1098   882   884   ar
  1099  1466  1465    2
  1100  1434  1433    1
  1101   834   846    1
  1102  1465  1467   ar
  1103   881   879   ar
  1104  1470  1472    1
  1105  1470  1468   ar
  1106  1437  1436    1
  1107   852   856    1
  1108   852   851    1
  1109   856   855    1
  1110   846   849    1
  1111   846   847    1
  1112  1443  1439    1
  1113  1443  1444    1
  1114   886   884    1
  1115   884   885   ar
  1116  1467  1468   ar
  1117   879   880    2
  1118   879   878   ar
  1119  1468  1469    2
  1120  1433  1420    1
  1121   849   850    1
  1122   903   902    2
  1123   885   878   ar
  1124  1435  1420    1
  1125  1446  1445    2
  1126   878   877    1
  1127   850   851    1
  1128  1444  1445   ar
  1129  1444  1451   ar
  1130   901   902   ar
  1131   901   899   ar
  1132   851   853    1
  1133   944   943   ar
  1134   944   945   ar
  1135   920   919    2
  1136   855   853    1
  1137   900   899    2
  1138  1445  1447   ar
  1139   943   941   ar
  1140   902   904   ar
  1141   921   919   ar
  1142   921   922   ar
  1143   899   898   ar
  1144  1451  1450   ar
  1145   853   854    1
  1146   877   873    1
  1147   877   876    1
  1148   945   946   ar
  1149   923   922    1
  1150   919   918   ar
  1151   922   924   ar
  1152   873   872    1
  1153  1447  1448   ar
  1154   941   942    1
  1155   941   940   ar
  1156   965   966   ar
  1157   965   964   ar
  1158   904   906    1
  1159   904   905   ar
  1160  1421  1419    1
  1161  1421  1422    1
  1162   966   967   ar
  1163  1450  1448   ar
  1164  1450  1452    1
  1165  1419  1417    1
  1166   898   905   ar
  1167   898   897    1
  1168   946   940   ar
  1169   946   937   ar
  1170   918   917    1
  1171   918   925   ar
  1172  1448  1449    2
  1173   876   874    1
  1174  1417  1416    1
  1175  1417  1418    1
  1176   940   939   ar
  1177   964   962   ar
  1178   854   867    1
  1179   917   916    1
  1180   917   913    1
  1181   924   925   ar
  1182   897   893    1
  1183   897   896    1
  1184   974   978    1
  1185   974   973    1
  1186  1416  1415    1
  1187  1413  1412    2
  1188   870   871    1
  1189   870   867    1
  1190   869   867    2
  1191   937   936    1
  1192   937   938   ar
  1193   936   932    1
  1194   936   935    1
  1195   981   980    2
  1196   967   958   ar
  1197   967   961   ar
  1198   957   956    1
  1199   957   958    1
  1200   957   953    1
  1201   872   874    1
  1202   872   871    1
  1203   978   979    1
  1204   978   977    1
  1205   932   931    1
  1206   893   892    1
  1207   956   954    1
  1208   874   875    1
  1209  1422  1418    1
  1210  1422  1423    1
  1211   973   972    1
  1212   973   975    1
  1213   916   914    1
  1214   939   938   ar
  1215   867   868    1
  1216   913   912    1
  1217   962   961   ar
  1218   962   963    1
  1219   958   959   ar
  1220   953   952    1
  1221   972   971    1
  1222  1431  1430   ar
  1223  1431  1432   ar
  1224   980   979   ar
  1225   980   982   ar
  1226   896   894    1
  1227   961   960   ar
  1228   979   986   ar
  1229   977   975    1
  1230  1001  1000    2
  1231   935   933    1
  1232  1415  1412    1
  1233  1412  1414    1
  1234  1412  1400    1
  1235   998   994    1
  1236   998   997    1
  1237   998   999    1
  1238  1430  1429   ar
  1239  1423  1432   ar
  1240  1423  1424   ar
  1241  1014  1013    1
  1242  1014  1018    1
  1243   952   954    1
  1244   952   951    1
  1245   994   993    1
  1246   931   933    1
  1247   931   930    1
  1248  1432  1426   ar
  1249   997   995    1
  1250   975   976    1
  1251  1013  1012    1
  1252  1013  1015    1
  1253   954   955    1
  1254   959   960   ar
  1255   912   914    1
  1256   912   911    1
  1257   982   983   ar
  1258   875   887    1
  1259   892   894    1
  1260   892   891    1
  1261  1000   999   ar
  1262  1000  1002   ar
  1263   986   985   ar
  1264  1012  1011    1
  1265   971   968    1
  1266   993   995    1
  1267   993   992    1
  1268   914   915    1
  1269   955   969    1
  1270  1018  1019    1
  1271  1018  1017    1
  1272  1429  1427   ar
  1273  1424  1425   ar
  1274   976   988    1
  1275   999  1006   ar
  1276   894   895    1
  1277   889   887    2
  1278   933   934    1
  1279  1426  1427   ar
  1280  1426  1425   ar
  1281   930   929    1
  1282   890   891    1
  1283   890   887    1
  1284   951   950    1
  1285  1400  1399    1
  1286  1427  1428    1
  1287   995   996    1
  1288  1002  1003   ar
  1289   983   985   ar
  1290   983   984    2
  1291   985   987    1
  1292  1016  1015    1
  1293  1016  1029    1
  1294   996  1008    1
  1295   887   888    1
  1296   915   926    1
  1297   992   991    1
  1298  1015  1017    1
  1299   934   947    1
  1300  1019  1028   ar
  1301  1019  1020   ar
  1302   969   968    1
  1303   911   910    1
  1304  1027  1028   ar
  1305  1027  1026   ar
  1306  1006  1005   ar
  1307  1011  1008    1
  1308   929   926    1
  1309   968   970    1
  1310   910   907    1
  1311   950   947    1
  1312   991   988    1
  1313  1028  1022   ar
  1314   895   907    1
  1315   988   990    2
  1316   988   989    1
  1317  1030  1029    2
  1318  1020  1021   ar
  1319  1399  1401    1
  1320  1399  1397    1
  1321  1026  1025   ar
  1322  1003  1005   ar
  1323  1003  1004    2
  1324  1029  1032    1
  1325  1029  1031    1
  1326  1008  1009    2
  1327  1008  1010    1
  1328  1005  1007    1
  1329   926   928    2
  1330   926   927    1
  1331  1401  1402    1
  1332  1033  1032    1
  1333  1033  1034    1
  1334   909   907    2
  1335   907   908    1
  1336  1022  1021   ar
  1337  1022  1023   ar
  1338   947   949    2
  1339   947   948    1
  1340  1035  1034    1
  1341  1035  1039    1
  1342  1025  1023   ar
  1343  1397  1396    1
  1344  1397  1398    1
  1345  1034  1036    1
  1346  1396  1395    1
  1347  1405  1404    2
  1348  1023  1024    1
  1349  1404  1403   ar
  1350  1404  1406   ar
  1351  1402  1403    1
  1352  1402  1398    1
  1353  1039  1040    1
  1354  1039  1038    1
  1355  1403  1410   ar
  1356  1406  1407   ar
  1357  1047  1040   ar
  1358  1047  1046   ar
  1359  1394  1392    2
  1360  1040  1041   ar
  1361  1395  1392    1
  1362  1410  1409   ar
  1363  1046  1044   ar
  1364  1036  1038    1
  1365  1036  1037    1
  1366  1407  1409   ar
  1367  1407  1408    2
  1368  1409  1411    1
  1369  1393  1392    1
  1370  1392  1380    1
  1371  1041  1042    2
  1372  1041  1043   ar
  1373  1037  1048    1
  1374  1044  1043   ar
  1375  1044  1045    1
  1376  1292  1291    2
  1377  1380  1379    1
  1378  1291  1280    1
  1379  1291  1293    1
  1380  1291  1294    1
  1381  1049  1048    2
  1382  1048  1050    1
  1383  1048  1051    1
  1384  1280  1279    1
  1385  1381  1379    1
  1386  1381  1382    1
  1387  1385  1384    2
  1388  1379  1377    1
  1389  1273  1272    2
  1390  1275  1276    1
  1391  1275  1272    1
  1392  1276  1277    1
  1393  1386  1384   ar
  1394  1386  1387   ar
  1395  1384  1383   ar
  1396  1060  1061   ar
  1397  1060  1059   ar
  1398  1054  1053    1
  1399  1054  1058    1
  1400  1051  1052    1
  1401  1295  1294    1
  1402  1295  1296    1
  1403  1061  1062   ar
  1404  1052  1053    1
  1405  1311  1310    2
  1406  1277  1279    1
  1407  1277  1278    1
  1408  1312  1310    1
  1409  1388  1387    2
  1410  1387  1389   ar
  1411  1279  1281    1
  1412  1059  1058    1
  1413  1059  1069   ar
  1414  1272  1259    1
  1415  1272  1274    1
  1416  1383  1382    1
  1417  1383  1390   ar
  1418  1382  1378    1
  1419  1053  1055    1
  1420  1058  1057    1
  1421  1310  1299    1
  1422  1310  1313    1
  1423  1062  1069   ar
  1424  1062  1063   ar
  1425  1299  1298    1
  1426  1377  1378    1
  1427  1377  1376    1
  1428  1389  1390   ar
  1429  1389  1391    1
  1430  1069  1068   ar
  1431  1064  1063    2
  1432  1259  1258    1
  1433  1296  1298    1
  1434  1296  1297    1
  1435  1063  1065   ar
  1436  1281  1282    1
  1437  1375  1376    1
  1438  1375  1372    1
  1439  1278  1282    1
  1440  1374  1372    2
  1441  1373  1372    1
  1442  1298  1300    1
  1443  1068  1066   ar
  1444  1372  1361    1
  1445  1065  1066   ar
  1446  1055  1057    1
  1447  1055  1056    1
  1448  1313  1314    1
  1449  1066  1067    1
  1450  1297  1301    1
  1451  1282  1283    1
  1452  1258  1256    1
  1453  1258  1260    1
  1454  1333  1331    2
  1455  1256  1255    1
  1456  1256  1257    1
  1457  1314  1315    1
  1458  1369  1368    1
  1459  1056  1070    1
  1460  1300  1301    1
  1461  1260  1261    1
  1462  1089  1087    1
  1463  1309  1308   ar
  1464  1309  1302   ar
  1465  1290  1283   ar
  1466  1290  1289   ar
  1467  1283  1284   ar
  1468  1368  1367   ar
  1469  1368  1370   ar
  1470  1301  1302    1
  1471  1367  1365   ar
  1472  1361  1360    1
  1473  1355  1353    2
  1474  1255  1254    1
  1475  1261  1257    1
  1476  1261  1262    1
  1477  1308  1306   ar
  1478  1331  1332    1
  1479  1331  1318    1
  1480  1331  1334    1
  1481  1073  1070    1
  1482  1073  1074    1
  1483  1270  1269   ar
  1484  1270  1271   ar
  1485  1370  1371   ar
  1486  1360  1362    1
  1487  1360  1358    1
  1488  1087  1085   ar
  1489  1087  1088   ar
  1490  1086  1085    2
  1491  1302  1303   ar
  1492  1365  1366    2
  1493  1365  1364   ar
  1494  1070  1072    2
  1495  1070  1071    1
  1496  1362  1363    1
  1497  1318  1317    1
  1498  1085  1084   ar
  1499  1315  1317    1
  1500  1315  1316    1
  1501  1269  1268   ar
  1502  1088  1081   ar
  1503  1074  1075    1
  1504  1354  1353    1
  1505  1371  1364   ar
  1506  1317  1319    1
  1507  1323  1322   ar
  1508  1323  1324   ar
  1509  1356  1353    1
  1510  1356  1357    1
  1511  1322  1321   ar
  1512  1289  1287   ar
  1513  1285  1284    2
  1514  1364  1363    1
  1515  1353  1339    1
  1516  1284  1286   ar
  1517  1076  1075    1
  1518  1076  1080    1
  1519  1262  1271   ar
  1520  1262  1263   ar
  1521  1244  1243    2
  1522  1271  1265   ar
  1523  1084  1082   ar
  1524  1347  1346    2
  1525  1254  1251    1
  1526  1081  1082   ar
  1527  1081  1080    1
  1528  1316  1320    1
  1529  1306  1307    1
  1530  1306  1305   ar
  1531  1363  1359    1
  1532  1227  1228    1
  1533  1227  1225    2
  1534  1334  1335    1
  1535  1344  1343   ar
  1536  1344  1345   ar
  1537  1075  1077    1
  1538  1357  1358    1
  1539  1240  1241    1
  1540  1240  1238    1
  1541  1358  1359    1
  1542  1082  1083    2
  1543  1303  1305   ar
  1544  1303  1304    2
  1545  1252  1251    2
  1546  1268  1266   ar
  1547  1080  1079    1
  1548  1228  1229    2
  1549  1287  1286   ar
  1550  1287  1288    1
  1551  1321  1320    1
  1552  1321  1330   ar
  1553  1239  1251    1
  1554  1239  1238    1
  1555  1324  1325   ar
  1556  1324  1330   ar
  1557  1326  1325    1
  1558  1346  1345   ar
  1559  1346  1348   ar
  1560  1226  1225    1
  1561  1343  1342   ar
  1562  1339  1338    1
  1563  1319  1320    1
  1564  1345  1352   ar
  1565  1251  1253    1
  1566  1263  1264   ar
  1567  1243  1242   ar
  1568  1243  1245   ar
  1569  1241  1242    1
  1570  1241  1237    1
  1571  1265  1266   ar
  1572  1265  1264   ar
  1573  1225  1224    1
  1574  1338  1336    1
  1575  1338  1340    1
  1576  1106  1105    1
  1577  1335  1336    1
  1578  1238  1236    1
  1579  1325  1327   ar
  1580  1266  1267    1
  1581  1330  1329   ar
  1582  1077  1079    1
  1583  1077  1078    1
  1584  1348  1349   ar
  1585  1229  1230    1
  1586  1242  1249   ar
  1587  1245  1246   ar
  1588  1342  1352   ar
  1589  1342  1341    1
  1590  1236  1237    1
  1591  1236  1235    1
  1592  1352  1351   ar
  1593  1336  1337    1
  1594  1340  1341    1
  1595  1105  1107   ar
  1596  1105  1104   ar
  1597  1092  1090    2
  1598  1107  1108   ar
  1599  1224  1230    1
  1600  1224  1223    1
  1601  1078  1090    1
  1602  1125  1124    2
  1603  1337  1341    1
  1604  1327  1328   ar
  1605  1104  1102   ar
  1606  1230  1221    2
  1607  1349  1351   ar
  1608  1349  1350    1
  1609  1329  1328   ar
  1610  1249  1248   ar
  1611  1108  1101   ar
  1612  1090  1091    1
  1613  1090  1093    1
  1614  1246  1247    2
  1615  1246  1248   ar
  1616  1235  1234    1
  1617  1102  1101   ar
  1618  1102  1103    2
  1619  1124  1123   ar
  1620  1124  1126   ar
  1621  1148  1147    1
  1622  1223  1222    2
  1623  1146  1147   ar
  1624  1146  1144   ar
  1625  1145  1144    2
  1626  1101  1100    1
  1627  1128  1126    1
  1628  1248  1250    1
  1629  1221  1222    1
  1630  1123  1121   ar
  1631  1147  1149   ar
  1632  1234  1231    1
  1633  1144  1143   ar
  1634  1126  1127   ar
  1635  1093  1094    1
  1636  1096  1100    1
  1637  1096  1095    1
  1638  1219  1220    1
  1639  1219  1217    1
  1640  1100  1099    1
  1641  1220  1216    1
  1642  1164  1163    2
  1643  1188  1189   ar
  1644  1188  1187   ar
  1645  1121  1122    2
  1646  1121  1120   ar
  1647  1189  1190   ar
  1648  1149  1150   ar
  1649  1165  1163   ar
  1650  1165  1166   ar
  1651  1127  1120   ar
  1652  1143  1150   ar
  1653  1143  1142   ar
  1654  1094  1095    1
  1655  1163  1162   ar
  1656  1187  1185   ar
  1657  1095  1097    1
  1658  1120  1119    1
  1659  1231  1232    2
  1660  1231  1218    1
  1661  1231  1233    1
  1662  1217  1218    1
  1663  1217  1215    1
  1664  1150  1140   ar
  1665  1204  1203    2
  1666  1167  1166    1
  1667  1216  1215    1
  1668  1099  1097    1
  1669  1166  1168   ar
  1670  1190  1181   ar
  1671  1190  1184   ar
  1672  1142  1141   ar
  1673  1180  1181    1
  1674  1180  1176    1
  1675  1180  1179    1
  1676  1097  1098    1
  1677  1185  1184   ar
  1678  1185  1186    1
  1679  1197  1196    1
  1680  1197  1201    1
  1681  1162  1161    1
  1682  1162  1169   ar
  1683  1181  1182   ar
  1684  1176  1175    1
  1685  1161  1160    1
  1686  1161  1157    1
  1687  1215  1214    1
  1688  1184  1183   ar
  1689  1203  1202   ar
  1690  1203  1205   ar
  1691  1119  1115    1
  1692  1119  1118    1
  1693  1179  1177    1
  1694  1140  1141   ar
  1695  1140  1139    1
  1696  1202  1201    1
  1697  1202  1209   ar
  1698  1196  1195    1
  1699  1196  1198    1
  1700  1168  1169   ar
  1701  1115  1114    1
  1702  1160  1158    1
  1703  1201  1200    1
  1704  1195  1194    1
  1705  1182  1183   ar
  1706  1175  1177    1
  1707  1175  1174    1
  1708  1205  1206   ar
  1709  1213  1199    1
  1710  1213  1214    1
  1711  1139  1135    1
  1712  1139  1138    1
  1713  1157  1156    1
  1714  1111  1109    2
  1715  1098  1109    1
  1716  1199  1210    1
  1717  1118  1116    1
  1718  1177  1178    1
  1719  1209  1208   ar
  1720  1198  1200    1
  1721  1112  1109    1
  1722  1112  1113    1
  1723  1194  1191    1
  1724  1135  1134    1
  1725  1109  1110    1
  1726  1211  1210    2
  1727  1178  1191    1
  1728  1138  1136    1
  1729  1114  1116    1
  1730  1114  1113    1
  1731  1206  1208   ar
  1732  1206  1207    1
  1733  1174  1173    1
  1734  1210  1212    2
  1735  1158  1156    1
  1736  1158  1159    1
  1737  1156  1155    1
  1738  1116  1117    1
  1739  1173  1170    1
  1740  1159  1170    1
  1741  1191  1192    2
  1742  1191  1193    1
  1743  1136  1134    1
  1744  1136  1137    1
  1745  1134  1133    1
  1746  1155  1154    1
  1747  1131  1129    2
  1748  1117  1129    1
  1749  1154  1151    1
  1750  1132  1133    1
  1751  1132  1129    1
  1752  1170  1172    2
  1753  1170  1171    1
  1754  1129  1130    1
  1755  1153  1151    2
  1756  1137  1151    1
  1757  1151  1152    1
