@<TRIPOS>MOLECULE
dna.pdb
 1946 2179 0 0 0
SMALL
GASTEIGER

@<TRIPOS>ATOM
      1  O5'        1.1270   18.5170   16.4070 O.3     1  DA1        -0.2176
      2  C5'        1.7810   18.6510   17.6580 C.3     1  DA1         0.2140
      3  C4'        1.9820   17.3130   18.3110 C.3     1  DA1         0.1776
      4  O4'        0.6990   16.7050   18.5920 O.3     1  DA1        -0.3326
      5  C3'        2.6990   16.2800   17.4630 C.3     1  DA1         0.1559
      6  O3'        4.1020   16.4240   17.5080 O.3     1  DA1        -0.3138
      7  C2'        2.2230   14.9540   18.0340 C.3     1  DA1         0.0865
      8  C1'        0.8010   15.3010   18.4740 C.3     1  DA1         0.2094
      9  N9        -0.1800   14.8880   17.5450 N.ar    1  DA1        -0.2714
     10  C8        -0.7980   15.6600   16.5960 C.ar    1  DA1         0.1815
     11  N7        -1.5730   14.9800   15.7840 N.ar    1  DA1        -0.2193
     12  C5        -1.4540   13.6730   16.2280 C.ar    1  DA1         0.1518
     13  C6        -2.0270   12.4670   15.7860 C.ar    1  DA1         0.1919
     14  N6        -2.8710   12.3850   14.7550 N.pl3   1  DA1        -0.1054
     15  N1        -1.7000   11.3380   16.4490 N.ar    1  DA1        -0.2040
     16  C2        -0.8550   11.4220   17.4840 C.ar    1  DA1         0.2016
     17  N3        -0.2530   12.4950   17.9920 N.ar    1  DA1        -0.2048
     18  C4        -0.5980   13.6000   17.3110 C.ar    1  DA1         0.1691
     19  P          4.9210   16.0550   16.2390 P.3     2  DT2         0.2141
     20  OP1        6.3640   16.3300   16.5060 O.3     2  DT2        -0.4373
     21  OP2        4.3330   16.4430   14.9050 O.2     2  DT2        -0.5172
     22  O5'        4.6380   14.5170   16.3760 O.3     2  DT2        -0.3115
     23  C5'        5.1360   13.8460   17.5570 C.3     2  DT2         0.1785
     24  C4'        4.5160   12.4950   17.6280 C.3     2  DT2         0.1475
     25  O4'        3.0880   12.5600   17.5820 O.3     2  DT2        -0.3352
     26  C3'        4.8270   11.5750   16.4570 C.3     2  DT2         0.0405
     27  O3'        6.1060   11.0800   16.6310 O.3     2  DT2        -0.1270
     28  C2'        3.7430   10.5220   16.6040 C.3     2  DT2         0.0953
     29  C1'        2.5480   11.4190   16.9510 C.3     2  DT2         0.2115
     30  N1         1.7980   11.8730   15.7100 N.ar    2  DT2        -0.2574
     31  C2         0.9230   10.9750   15.1280 C.ar    2  DT2         0.3310
     32  O2         0.8240    9.8150   15.4880 O.3     2  DT2        -0.3353
     33  N3         0.1640   11.4850   14.1020 N.ar    2  DT2        -0.1549
     34  C4         0.1910   12.7730   13.6110 C.ar    2  DT2         0.2804
     35  O4        -0.5530   13.0830   12.6840 O.2     2  DT2        -0.2654
     36  C5         1.1260   13.6450   14.2660 C.ar    2  DT2         0.0534
     37  C6         1.8760   13.1750   15.2670 C.ar    2  DT2         0.0824
     38  C7         1.2310   15.0680   13.8030 C.3     2  DT2         0.0377
     39  P          6.4290   10.9930   15.9700 P.3     3  DA3         0.5677
     40  OP1        7.9120   11.0410   15.9480 O.2     3  DA3        -0.2249
     41  OP2        5.6780   10.8990   14.6900 O.2     3  DA3        -0.2249
     42  O5'        5.9410    9.7920   16.8990 O.3     3  DA3        -0.2093
     43  C5'        6.6820    9.3890   18.0650 C.3     3  DA3         0.2120
     44  C4'        6.0840    8.1270   18.6530 C.3     3  DA3         0.1501
     45  O4'        4.7340    8.3770   19.1440 O.3     3  DA3        -0.3374
     46  C3'        5.8930    6.9930   17.6670 C.3     3  DA3         0.0367
     47  O3'        7.1050    6.3070   17.4320 O.3     3  DA3        -0.1270
     48  C2'        4.8480    6.1450   18.3680 C.3     3  DA3         0.0536
     49  C1'        3.9300    7.2250   18.9340 C.3     3  DA3         0.1946
     50  N9         2.8970    7.7060   17.7570 N.pl3   3  DA3        -0.2505
     51  C8         2.9650    8.7990   16.9330 C.3     3  DA3         0.2031
     52  N7         1.9040    8.9600   16.1780 N.4     3  DA3        -0.1691
     53  C5         1.0840    7.8990   16.5290 C.ar    3  DA3         0.1612
     54  C6        -0.1910    7.5030   16.0880 C.ar    3  DA3         0.1927
     55  N6        -0.8890    8.1600   15.1590 N.pl3   3  DA3        -0.1054
     56  N1        -0.7290    6.3960   16.6420 N.ar    3  DA3        -0.2040
     57  C2        -0.0300    5.7390   17.5740 C.ar    3  DA3         0.2014
     58  N3         1.1740    6.0130   18.0710 N.ar    3  DA3        -0.2072
     59  C4         1.6820    7.1180   17.5000 C.ar    3  DA3         0.1581
     60  P          7.5960    6.3550   16.2200 P.3     4  DC4         0.5677
     61  OP1        8.8300    5.5530   16.3820 O.2     4  DC4        -0.2249
     62  OP2        7.1940    6.8560   14.8860 O.2     4  DC4        -0.2249
     63  O5'        6.3400    5.4920   16.7050 O.3     4  DC4        -0.2092
     64  C5'        6.4830    4.4490   17.6570 C.3     4  DC4         0.2145
     65  C4'        5.5040    3.3400   17.3720 C.3     4  DC4         0.1776
     66  O4'        4.1580    3.7840   17.6910 O.3     4  DC4        -0.3326
     67  C3'        5.3960    2.9260   15.9130 C.3     4  DC4         0.1559
     68  O3'        6.4470    2.0900   15.4620 O.3     4  DC4        -0.3138
     69  C2'        4.0190    2.2780   15.8680 C.3     4  DC4         0.0866
     70  C1'        3.2400    3.2330   16.7690 C.3     4  DC4         0.2106
     71  N1         2.5750    4.3700   16.0490 N.ar    4  DC4        -0.2556
     72  C2         1.2280    4.2000   15.7090 C.ar    4  DC4         0.3531
     73  O2         0.6090    3.2340   16.1880 O.2     4  DC4        -0.2443
     74  N3         0.6420    5.0870   14.8710 N.ar    4  DC4        -0.1739
     75  C4         1.3470    6.1080   14.3810 C.ar    4  DC4         0.1759
     76  N4         0.7270    6.9580   13.5590 N.pl3   4  DC4        -0.1070
     77  C5         2.7130    6.2980   14.7130 C.ar    4  DC4         0.0566
     78  C6         3.2880    5.4190   15.5410 C.ar    4  DC4         0.0849
     79  P          6.9870    2.2500   13.7890 P.3     5  DC5         0.2141
     80  OP1        8.0650    1.5350   13.0610 O.2     5  DC5        -0.5172
     81  OP2        6.7630    3.7000   13.5270 O.3     5  DC5        -0.4373
     82  O5'        5.6080    1.4830   13.5400 O.3     5  DC5        -0.3114
     83  C5'        5.4550    0.1100   13.9010 C.3     5  DC5         0.1811
     84  C4'        4.0590   -0.3760   13.5760 C.3     5  DC5         0.1746
     85  O4'        3.0780    0.3500   14.3660 O.3     5  DC5        -0.3327
     86  C3'        3.5860   -0.2030   12.1400 C.3     5  DC5         0.1558
     87  O3'        4.0840   -1.2460   11.3040 O.3     5  DC5        -0.3138
     88  C2'        2.0620   -0.2190   12.2800 C.3     5  DC5         0.0866
     89  C1'        1.8610    0.4510   13.6430 C.3     5  DC5         0.2106
     90  N1         1.4100    1.7290   13.3570 N.ar    5  DC5        -0.2556
     91  C2         0.0390    2.0020   13.2750 C.ar    5  DC5         0.3531
     92  O2        -0.7680    1.1090   13.5860 O.2     5  DC5        -0.2443
     93  N3        -0.3660    3.2260   12.8600 N.ar    5  DC5        -0.1739
     94  C4         0.5350    4.1530   12.5350 C.ar    5  DC5         0.1759
     95  N4         0.0890    5.3440   12.1320 N.pl3   5  DC5        -0.1070
     96  C5         1.9290    3.8970   12.6120 C.ar    5  DC5         0.0566
     97  C6         2.3250    2.6870   13.0220 C.ar    5  DC5         0.0849
     98  P          3.5800   -1.3850    9.7320 P.3     6  DA6         0.2141
     99  OP1        4.7260   -2.2230    9.2830 O.3     6  DA6        -0.4373
    100  OP2        3.0240   -0.3480    8.8210 O.2     6  DA6        -0.5172
    101  O5'        2.3710   -2.3490   10.1630 O.3     6  DA6        -0.3114
    102  C5'        2.5060   -3.7920   10.1220 C.3     6  DA6         0.1811
    103  C4'        1.1590   -4.5050   10.1050 C.3     6  DA6         0.1746
    104  O4'        0.3470   -4.1770   11.2710 O.3     6  DA6        -0.3327
    105  C3'        0.2240   -4.2610    8.9300 C.3     6  DA6         0.1558
    106  O3'        0.6260   -5.0400    7.8060 O.3     6  DA6        -0.3138
    107  C2'       -1.1000   -4.7740    9.4730 C.3     6  DA6         0.0865
    108  C1'       -1.0230   -4.3550   10.9460 C.3     6  DA6         0.2094
    109  N9        -1.7490   -2.9940   11.2680 N.ar    6  DA6        -0.2717
    110  C8        -1.3350   -1.7040   11.4710 C.ar    6  DA6         0.1812
    111  N7        -2.3090   -0.8770   11.7720 N.ar    6  DA6        -0.2235
    112  C5        -3.4390   -1.6800   11.7650 C.ar    6  DA6         0.1301
    113  C6        -4.7960   -1.4050   12.0070 C.3     6  DA6         0.2029
    114  N6        -5.2610   -0.1920   12.3170 N.3     6  DA6        -0.1050
    115  N1        -5.6690   -2.4310   11.9180 N.am    6  DA6        -0.2733
    116  C2        -5.2030   -3.6460   11.6080 C.2     6  DA6         0.1574
    117  N3        -3.9520   -4.0280   11.3600 N.2     6  DA6        -0.2103
    118  C4        -3.1100   -2.9860   11.4550 C.ar    6  DA6         0.1648
    119  P          0.4040   -4.4390    6.2810 P.3     7  DG7         0.2141
    120  OP1        0.8830   -5.3570    5.2560 O.2     7  DG7        -0.5172
    121  OP2        1.1020   -3.1740    6.5170 O.3     7  DG7        -0.4373
    122  O5'       -1.1550   -4.0720    6.0450 O.3     7  DG7        -0.3114
    123  C5'       -2.1420   -5.1120    6.1920 C.3     7  DG7         0.1811
    124  C4'       -3.5590   -4.6270    6.0400 C.3     7  DG7         0.1746
    125  O4'       -3.9800   -3.9420    7.2490 O.3     7  DG7        -0.3327
    126  C3'       -3.7940   -3.5880    4.9830 C.3     7  DG7         0.1558
    127  O3'       -3.9740   -4.1890    3.7430 O.3     7  DG7        -0.3138
    128  C2'       -5.1080   -2.9540    5.4500 C.3     7  DG7         0.0865
    129  C1'       -4.8820   -2.8760    6.9480 C.3     7  DG7         0.2094
    130  N9        -4.2250   -1.7400    7.5360 N.ar    7  DG7        -0.2713
    131  C8        -2.8820   -1.4690    7.6380 C.ar    7  DG7         0.1816
    132  N7        -2.6300   -0.2410    8.0020 N.ar    7  DG7        -0.2173
    133  C5        -3.8780    0.3350    8.1520 C.ar    7  DG7         0.1748
    134  C6        -4.2480    1.6510    8.5300 C.ar    7  DG7         0.3023
    135  O6        -3.5100    2.6010    8.8180 O.2     7  DG7        -0.2633
    136  N1        -5.6300    1.8160    8.5560 N.ar    7  DG7        -0.1709
    137  C2        -6.5430    0.8340    8.2560 C.ar    7  DG7         0.2606
    138  N2        -7.8340    1.1830    8.3380 N.pl3   7  DG7        -0.0859
    139  N3        -6.2150   -0.3930    7.9020 N.ar    7  DG7        -0.1918
    140  C4        -4.8780   -0.5760    7.8690 C.ar    7  DG7         0.1722
    141  P         -3.6450   -3.1860    2.6400 P.3     8  DC8         0.2141
    142  OP1       -3.9730   -4.1990    1.6250 O.2     8  DC8        -0.5172
    143  OP2       -2.4990   -2.2490    2.5150 O.3     8  DC8        -0.4373
    144  O5'       -5.0070   -2.3820    2.7490 O.3     8  DC8        -0.3114
    145  C5'       -6.0450   -3.0300    2.0800 C.3     8  DC8         0.1811
    146  C4'       -7.2840   -2.1910    2.1980 C.3     8  DC8         0.1746
    147  O4'       -7.3260   -1.6800    3.5450 O.3     8  DC8        -0.3327
    148  C3'       -7.2770   -0.9310    1.3530 C.3     8  DC8         0.1558
    149  O3'       -7.5700   -1.1960   -0.0130 O.3     8  DC8        -0.3138
    150  C2'       -8.3400   -0.0870    2.0610 C.3     8  DC8         0.0866
    151  C1'       -7.9300   -0.3870    3.4980 C.3     8  DC8         0.2106
    152  N1        -6.9890    0.6650    4.0210 N.ar    8  DC8        -0.2556
    153  C2        -7.5000    1.9160    4.3840 C.ar    8  DC8         0.3531
    154  O2        -8.7130    2.1360    4.2220 O.2     8  DC8        -0.2443
    155  N3        -6.6610    2.8470    4.8970 N.ar    8  DC8        -0.1739
    156  C4        -5.3670    2.5660    5.0510 C.ar    8  DC8         0.1759
    157  N4        -4.5780    3.5150    5.5610 N.pl3   8  DC8        -0.1070
    158  C5        -4.8290    1.3040    4.6900 C.ar    8  DC8         0.0566
    159  C6        -5.6610    0.3880    4.1830 C.ar    8  DC8         0.0849
    160  P         -6.8420   -0.3950   -1.0620 P.3     9  DT9         0.2141
    161  OP1       -6.9790   -0.9790   -2.4200 O.2     9  DT9        -0.5172
    162  OP2       -5.5010   -0.0130   -0.5610 O.3     9  DT9        -0.4373
    163  O5'       -7.7790    0.8890   -0.9890 O.3     9  DT9        -0.3114
    164  C5'       -9.2070    0.7530   -1.0690 C.3     9  DT9         0.1811
    165  C4'       -9.8880    1.9540   -0.4570 C.3     9  DT9         0.1746
    166  O4'       -9.3740    2.1780    0.8850 O.3     9  DT9        -0.3327
    167  C3'       -9.6570    3.2960   -1.1280 C.3     9  DT9         0.1558
    168  O3'      -10.4670    3.4390   -2.2930 O.3     9  DT9        -0.3138
    169  C2'      -10.0680    4.2600   -0.0200 C.3     9  DT9         0.0866
    170  C1'       -9.5050    3.5540    1.2120 C.3     9  DT9         0.2106
    171  N1        -8.0620    3.9900    1.4490 N.ar    9  DT9        -0.2559
    172  C2        -7.8790    5.1980    2.0950 C.ar    9  DT9         0.3545
    173  O2        -8.8030    5.9180    2.4310 O.2     9  DT9        -0.2443
    174  N3        -6.5690    5.5370    2.3330 N.ar    9  DT9        -0.1533
    175  C4        -5.4480    4.8060    1.9980 C.ar    9  DT9         0.2804
    176  O4        -4.3350    5.2420    2.2790 O.2     9  DT9        -0.2654
    177  C5        -5.7210    3.5650    1.3300 C.ar    9  DT9         0.0534
    178  C6        -6.9850    3.2100    1.0860 C.ar    9  DT9         0.0824
    179  C7        -4.5670    2.6970    0.9240 C.3     9  DT9         0.0377
    180  P        -10.2060    4.6120   -3.1570 P.3    10  DT10        0.2141
    181  OP1      -10.7440    4.2640   -4.4940 O.2    10  DT10       -0.5172
    182  OP2       -8.7420    4.5890   -2.9250 O.3    10  DT10       -0.4373
    183  O5'      -10.6330    6.0940   -2.7120 O.3    10  DT10       -0.3114
    184  C5'      -11.8600    6.3620   -2.0450 C.3    10  DT10        0.1811
    185  C4'      -11.8670    7.7140   -1.3630 C.3    10  DT10        0.1746
    186  O4'      -10.9910    7.7040   -0.2050 O.3    10  DT10       -0.3327
    187  C3'      -11.3680    8.8970   -2.1770 C.3    10  DT10        0.1558
    188  O3'      -12.3410    9.4100   -3.0660 O.3    10  DT10       -0.3138
    189  C2'      -10.9970    9.8970   -1.0940 C.3    10  DT10        0.0866
    190  C1'      -10.4280    8.9850   -0.0120 C.3    10  DT10        0.2106
    191  N1        -8.9640    8.8640   -0.0680 N.ar   10  DT10       -0.2559
    192  C2        -8.2120    9.7350    0.6980 C.ar   10  DT10        0.3545
    193  O2        -8.7070   10.6060    1.3910 O.2    10  DT10       -0.2443
    194  N3        -6.8530    9.5500    0.6230 N.ar   10  DT10       -0.1533
    195  C4        -6.1840    8.6030   -0.1240 C.ar   10  DT10        0.2804
    196  O4        -4.9570    8.5590   -0.0880 O.2    10  DT10       -0.2654
    197  C5        -7.0340    7.7370   -0.8930 C.ar   10  DT10        0.0534
    198  C6        -8.3590    7.8950   -0.8390 C.ar   10  DT10        0.0824
    199  C7        -6.4010    6.6730   -1.7400 C.3    10  DT10        0.0377
    200  P        -11.8400   10.3440   -4.4670 P.3    11  DA11        0.2141
    201  OP1      -13.1180   10.7020   -5.1230 O.3    11  DA11       -0.4373
    202  OP2      -10.6260   10.0890   -5.2740 O.2    11  DA11       -0.5172
    203  O5'      -11.4310   11.5300   -3.4770 O.3    11  DA11       -0.3114
    204  C5'      -12.4260   12.0320   -2.6000 C.3    11  DA11        0.1811
    205  C4'      -11.8820   13.1340   -1.7320 C.3    11  DA11        0.1746
    206  O4'      -11.0210   12.5660   -0.7120 O.3    11  DA11       -0.3327
    207  C3'      -10.9790   14.1380   -2.4280 C.3    11  DA11        0.1558
    208  O3'      -11.6700   15.1140   -3.1810 O.3    11  DA11       -0.3138
    209  C2'      -10.2010   14.7150   -1.2580 C.3    11  DA11        0.0865
    210  C1'       -9.9380   13.4380   -0.4660 C.3    11  DA11        0.2094
    211  N9        -8.6790   12.8450   -0.9620 N.ar   11  DA11       -0.2714
    212  C8        -8.5970   11.7350   -1.7620 C.ar   11  DA11        0.1815
    213  N7        -7.3670   11.3430   -1.9970 N.ar   11  DA11       -0.2193
    214  C5        -6.5890   12.2580   -1.3060 C.ar   11  DA11        0.1518
    215  C6        -5.1980   12.3930   -1.1540 C.ar   11  DA11        0.1919
    216  N6        -4.3100   11.5680   -1.7140 N.pl3  11  DA11       -0.1054
    217  N1        -4.7460   13.4170   -0.3990 N.ar   11  DA11       -0.2040
    218  C2        -5.6370   14.2420    0.1620 C.ar   11  DA11        0.2016
    219  N3        -6.9660   14.2180    0.0940 N.ar   11  DA11       -0.2048
    220  C4        -7.3830   13.1900   -0.6650 C.ar   11  DA11        0.1691
    221  P        -11.2090   15.3280   -4.7740 P.3    12  DT12        0.2141
    222  OP1      -12.4560   16.1100   -5.0220 O.3    12  DT12       -0.4373
    223  OP2      -10.8390   14.1860   -5.6510 O.2    12  DT12       -0.5172
    224  O5'       -9.8920   16.2710   -4.7960 O.3    12  DT12       -0.3114
    225  C5'       -9.9410   17.5210   -4.1260 C.3    12  DT12        0.1811
    226  C4'       -8.6390   17.8700   -3.4450 C.3    12  DT12        0.1746
    227  O4'       -8.0550   16.7410   -2.7330 O.3    12  DT12       -0.3327
    228  C3'       -7.5180   18.2590   -4.3710 C.3    12  DT12        0.1558
    229  O3'       -7.7130   19.5310   -4.8870 O.3    12  DT12       -0.3138
    230  C2'       -6.3620   18.2610   -3.3870 C.3    12  DT12        0.0866
    231  C1'       -6.6540   16.9580   -2.6500 C.3    12  DT12        0.2106
    232  N1        -5.9420   15.8180   -3.2820 N.ar   12  DT12       -0.2559
    233  C2        -4.5760   15.6800   -3.1290 C.ar   12  DT12        0.3545
    234  O2        -3.8840   16.5070   -2.5620 O.2    12  DT12       -0.2443
    235  N3        -4.0430   14.5340   -3.6690 N.ar   12  DT12       -0.1533
    236  C4        -4.7250   13.5350   -4.3310 C.ar   12  DT12        0.2804
    237  O4        -4.1080   12.5630   -4.7600 O.2    12  DT12       -0.2654
    238  C5        -6.1390   13.7510   -4.4500 C.ar   12  DT12        0.0534
    239  C6        -6.6830   14.8570   -3.9340 C.ar   12  DT12        0.0824
    240  C7        -6.9690   12.7200   -5.1550 C.3    12  DT12        0.0377
    241  P         -7.2080   19.9010   -6.3270 P.3    13  DT13        0.2141
    242  OP1       -7.6760   21.3190   -6.5040 O.3    13  DT13       -0.4373
    243  OP2       -7.6130   18.9590   -7.4040 O.2    13  DT13       -0.5172
    244  O5'       -5.6670   19.8290   -6.0090 O.3    13  DT13       -0.3114
    245  C5'       -5.1760   20.9400   -5.2000 C.3    13  DT13        0.1811
    246  C4'       -3.6800   20.7060   -5.2040 C.3    13  DT13        0.1746
    247  O4'       -3.3490   19.5690   -4.4600 O.3    13  DT13       -0.3327
    248  C3'       -3.1140   20.4020   -6.5860 C.3    13  DT13        0.1558
    249  O3'       -3.0080   21.5520   -7.3960 O.3    13  DT13       -0.3138
    250  C2'       -1.7610   19.8010   -6.1680 C.3    13  DT13        0.0866
    251  C1'       -2.1600   18.9250   -4.9920 C.3    13  DT13        0.2106
    252  N1        -2.5560   17.5630   -5.5220 N.ar   13  DT13       -0.2559
    253  C2        -1.5090   16.6670   -5.6340 C.ar   13  DT13        0.3545
    254  O2        -0.3890   16.8990   -5.2150 O.2    13  DT13       -0.2443
    255  N3        -1.8210   15.4840   -6.2580 N.ar   13  DT13       -0.1533
    256  C4        -3.0470   15.1140   -6.7700 C.ar   13  DT13        0.2804
    257  O4        -3.1740   14.0150   -7.3030 O.2    13  DT13       -0.2654
    258  C5        -4.0820   16.0980   -6.6160 C.ar   13  DT13        0.0534
    259  C6        -3.8060   17.2570   -6.0130 C.ar   13  DT13        0.0824
    260  C7        -5.4530   15.7900   -7.1420 C.3    13  DT13        0.0377
    261  P         -2.7300   21.6910   -8.9180 P.3    14  DC14        0.2141
    262  OP1       -2.8720   22.7820   -9.9120 O.2    14  DC14       -0.5172
    263  OP2       -2.5400   20.3030   -9.4020 O.3    14  DC14       -0.4373
    264  O5'       -1.5470   22.0630   -7.9020 O.3    14  DC14       -0.3114
    265  C5'       -0.2290   22.2920   -8.3630 C.3    14  DC14        0.1811
    266  C4'        0.6730   21.1060   -8.0750 C.3    14  DC14        0.1746
    267  O4'        0.0010   20.0470   -7.3460 O.3    14  DC14       -0.3327
    268  C3'        1.1610   20.3580   -9.3030 C.3    14  DC14        0.1558
    269  O3'        2.1380   21.0980  -10.0150 O.3    14  DC14       -0.3138
    270  C2'        1.7720   19.1350   -8.6410 C.3    14  DC14        0.0866
    271  C1'        0.7910   18.8780   -7.4980 C.3    14  DC14        0.2106
    272  N1         0.1160   17.7180   -7.9680 N.ar   14  DC14       -0.2556
    273  C2         0.5710   16.3960   -8.0280 C.ar   14  DC14        0.3531
    274  O2         1.7570   16.1580   -7.7410 O.2    14  DC14       -0.2443
    275  N3        -0.2900   15.4170   -8.3960 N.ar   14  DC14       -0.1739
    276  C4        -1.5540   15.7190   -8.6960 C.ar   14  DC14        0.1759
    277  N4        -2.3660   14.7220   -9.0530 N.pl3  14  DC14       -0.1070
    278  C5        -2.0350   17.0530   -8.6420 C.ar   14  DC14        0.0566
    279  C6        -1.1810   18.0160   -8.2780 C.ar   14  DC14        0.0849
    280  P          2.1250   21.0270  -11.5330 P.3    15  DA15        0.2141
    281  OP1        2.8300   22.1410  -12.2170 O.2    15  DA15       -0.5172
    282  OP2        0.7290   20.6990  -11.9120 O.3    15  DA15       -0.4373
    283  O5'        2.9690   19.6900  -11.7020 O.3    15  DA15       -0.3114
    284  C5'        4.3420   19.6400  -11.3650 C.3    15  DA15        0.1811
    285  C4'        4.8950   18.2820  -11.6980 C.3    15  DA15        0.1746
    286  O4'        4.3860   17.2900  -10.7700 O.3    15  DA15       -0.3327
    287  C3'        4.4580   17.7790  -13.0510 C.3    15  DA15        0.1558
    288  O3'        5.3000   18.2790  -14.0530 O.3    15  DA15       -0.3138
    289  C2'        4.5980   16.2740  -12.9020 C.3    15  DA15        0.0865
    290  C1'        4.1260   16.0800  -11.4590 C.3    15  DA15        0.2094
    291  N9         2.6870   15.8200  -11.4000 N.ar   15  DA15       -0.2714
    292  C8         1.6410   16.7040  -11.3630 C.ar   15  DA15        0.1815
    293  N7         0.4610   16.1290  -11.3870 N.ar   15  DA15       -0.2193
    294  C5         0.7530   14.7750  -11.4450 C.ar   15  DA15        0.1518
    295  C6        -0.0640   13.6320  -11.4930 C.ar   15  DA15        0.1919
    296  N6        -1.3980   13.6770  -11.4890 N.pl3  15  DA15       -0.1054
    297  N1         0.5440   12.4280  -11.5450 N.ar   15  DA15       -0.2040
    298  C2         1.8820   12.3850  -11.5480 C.ar   15  DA15        0.2016
    299  N3         2.7560   13.3870  -11.5050 N.ar   15  DA15       -0.2048
    300  C4         2.1200   14.5690  -11.4550 C.ar   15  DA15        0.1691
    301  P          4.7620   18.3220  -15.5850 P.3    16  DA16        0.2141
    302  OP1        5.7130   19.2590  -16.2220 O.2    16  DA16       -0.5172
    303  OP2        3.3260   18.6690  -15.5180 O.3    16  DA16       -0.4373
    304  O5'        4.8910   16.8980  -16.3100 O.3    16  DA16       -0.3114
    305  C5'        6.1700   16.3970  -16.6920 C.3    16  DA16        0.1811
    306  C4'        6.1890   14.8780  -16.6960 C.3    16  DA16        0.1746
    307  O4'        5.5890   14.3800  -15.4710 O.3    16  DA16       -0.3327
    308  C3'        5.3720   14.2110  -17.7930 C.3    16  DA16        0.1558
    309  O3'        6.0880   14.1710  -19.0220 O.3    16  DA16       -0.3138
    310  C2'        5.1900   12.8250  -17.1890 C.3    16  DA16        0.0865
    311  C1'        4.8580   13.1980  -15.7460 C.3    16  DA16        0.2094
    312  N9         3.3740   13.4800  -15.5600 N.ar   16  DA16       -0.2714
    313  C8         2.8000   14.7180  -15.4320 C.ar   16  DA16        0.1815
    314  N7         1.5340   14.6810  -15.0920 N.ar   16  DA16       -0.2193
    315  C5         1.2570   13.3270  -14.9890 C.ar   16  DA16        0.1518
    316  C6         0.0850   12.6230  -14.6590 C.ar   16  DA16        0.1919
    317  N6        -1.0730   13.2160  -14.3590 N.pl3  16  DA16       -0.1054
    318  N1         0.1460   11.2750  -14.6490 N.ar   16  DA16       -0.2040
    319  C2         1.3080   10.6820  -14.9490 C.ar   16  DA16        0.2016
    320  N3         2.4740   11.2350  -15.2730 N.ar   16  DA16       -0.2048
    321  C4         2.3800   12.5750  -15.2760 C.ar   16  DA16        0.1691
    322  P          5.3540   14.3210  -20.3870 P.3    17  DT17        0.2141
    323  OP1        6.4870   14.4460  -21.3470 O.2    17  DT17       -0.5172
    324  OP2        4.4540   15.5020  -20.1480 O.3    17  DT17       -0.4373
    325  O5'        4.5130   13.0650  -20.8780 O.3    17  DT17       -0.3114
    326  C5'        5.1290   11.7820  -20.8980 C.3    17  DT17        0.1811
    327  C4'        4.1020   10.7150  -20.6580 C.3    17  DT17        0.1746
    328  O4'        3.5350   10.8450  -19.3300 O.3    17  DT17       -0.3327
    329  C3'        2.9310   10.7840  -21.6030 C.3    17  DT17        0.1558
    330  O3'        3.2810   10.1100  -22.8010 O.3    17  DT17       -0.3138
    331  C2'        1.8220   10.1020  -20.8100 C.3    17  DT17        0.0866
    332  C1'        2.1770   10.4750  -19.3590 C.3    17  DT17        0.2106
    333  N1         1.3740   11.5810  -18.7870 N.ar   17  DT17       -0.2559
    334  C2         0.1290   11.2680  -18.2750 C.ar   17  DT17        0.3545
    335  O2        -0.3080   10.1310  -18.2410 O.2    17  DT17       -0.2443
    336  N3        -0.5910   12.3380  -17.8020 N.ar   17  DT17       -0.1533
    337  C4        -0.2000   13.6610  -17.7900 C.ar   17  DT17        0.2804
    338  O4        -0.9570   14.5120  -17.3300 O.2    17  DT17       -0.2654
    339  C5         1.1040   13.9050  -18.3400 C.ar   17  DT17        0.0534
    340  C6         1.8250   12.8830  -18.8060 C.ar   17  DT17        0.0824
    341  C7         1.6200   15.3130  -18.3730 C.3    17  DT17        0.0377
    342  P          2.7300   10.5930  -24.0950 P.3    18  DT18        0.2141
    343  OP1        3.1250   10.0360  -25.4130 O.2    18  DT18       -0.5172
    344  OP2        2.4240   12.0430  -23.9440 O.3    18  DT18       -0.4373
    345  O5'        1.5120    9.7420  -23.5030 O.3    18  DT18       -0.3114
    346  C5'        1.5010    8.3380  -23.6880 C.3    18  DT18        0.1811
    347  C4'        0.2350    7.7940  -23.0860 C.3    18  DT18        0.1746
    348  O4'        0.1400    8.2550  -21.7300 O.3    18  DT18       -0.3327
    349  C3'       -1.0460    8.3880  -23.6240 C.3    18  DT18        0.1558
    350  O3'       -1.3340    7.8900  -24.8870 O.3    18  DT18       -0.3138
    351  C2'       -2.0460    7.9260  -22.5720 C.3    18  DT18        0.0866
    352  C1'       -1.2250    8.2650  -21.3390 C.3    18  DT18        0.2106
    353  N1        -1.4660    9.5810  -20.7670 N.ar   18  DT18       -0.2559
    354  C2        -2.5910    9.7600  -19.9840 C.ar   18  DT18        0.3545
    355  O2        -3.3310    8.8460  -19.6650 O.2    18  DT18       -0.2443
    356  N3        -2.8220   11.0550  -19.5860 N.ar   18  DT18       -0.1533
    357  C4        -2.0580   12.1630  -19.8860 C.ar   18  DT18        0.2804
    358  O4        -2.3930   13.2630  -19.4540 O.2    18  DT18       -0.2654
    359  C5        -0.9080   11.8960  -20.7030 C.ar   18  DT18        0.0534
    360  C6        -0.6600   10.6460  -21.1040 C.ar   18  DT18        0.0824
    361  C7        -0.0130   13.0380  -21.0840 C.3    18  DT18        0.0377
    362  P         -1.9440    8.8770  -25.8990 P.3    19  DA19        0.2141
    363  OP1       -1.7690    8.4950  -27.3200 O.2    19  DA19       -0.5172
    364  OP2       -1.6250   10.2400  -25.4220 O.3    19  DA19       -0.4373
    365  O5'       -3.4640    8.6510  -25.4710 O.3    19  DA19       -0.3114
    366  C5'       -4.0370    7.3560  -25.5580 C.3    19  DA19        0.1811
    367  C4'       -5.4110    7.3580  -24.9490 C.3    19  DA19        0.1746
    368  O4'       -5.3020    7.6530  -23.5340 O.3    19  DA19       -0.3327
    369  C3'       -6.3410    8.4170  -25.5230 C.3    19  DA19        0.1558
    370  O3'       -7.0540    7.9110  -26.6400 O.3    19  DA19       -0.3138
    371  C2'       -7.2260    8.8220  -24.3460 C.3    19  DA19        0.0865
    372  C1'       -6.3400    8.5200  -23.1270 C.3    19  DA19        0.2094
    373  N9        -5.6620    9.6280  -22.5270 N.ar   19  DA19       -0.2714
    374  C8        -4.6480   10.3670  -23.0790 C.ar   19  DA19        0.1815
    375  N7        -4.5360   11.5720  -22.5710 N.ar   19  DA19       -0.2193
    376  C5        -5.5440   11.6280  -21.6220 C.ar   19  DA19        0.1518
    377  C6        -5.9530   12.6390  -20.7350 C.ar   19  DA19        0.1919
    378  N6        -5.3690   13.8370  -20.6600 N.pl3  19  DA19       -0.1054
    379  N1        -6.9960   12.3730  -19.9200 N.ar   19  DA19       -0.2040
    380  C2        -7.5800   11.1720  -19.9960 C.ar   19  DA19        0.2016
    381  N3        -7.2850   10.1420  -20.7860 N.ar   19  DA19       -0.2048
    382  C4        -6.2470   10.4380  -21.5840 C.ar   19  DA19        0.1691
    383  P         -7.8510    8.8980  -27.7390 P.3    20  DA20        0.2141
    384  OP1       -8.4730    8.0270  -28.7600 O.2    20  DA20       -0.5172
    385  OP2       -7.2960   10.2120  -28.1390 O.3    20  DA20       -0.4373
    386  O5'       -8.9330    9.2530  -26.6040 O.3    20  DA20       -0.3114
    387  C5'       -9.7810    8.2570  -26.0390 C.3    20  DA20        0.1811
    388  C4'      -10.5620    8.7380  -24.8320 C.3    20  DA20        0.1746
    389  O4'       -9.6800    8.9970  -23.7070 O.3    20  DA20       -0.3327
    390  C3'      -11.3350   10.0360  -24.9950 C.3    20  DA20        0.1558
    391  O3'      -12.5610    9.8680  -25.6830 O.3    20  DA20       -0.3138
    392  C2'      -11.4880   10.5360  -23.5600 C.3    20  DA20        0.0865
    393  C1'      -10.1760   10.0720  -22.9350 C.3    20  DA20        0.2094
    394  N9        -9.1760   11.1210  -22.9900 N.ar   20  DA20       -0.2714
    395  C8        -8.1460   11.2370  -23.8860 C.ar   20  DA20        0.1815
    396  N7        -7.4100   12.3090  -23.7100 N.ar   20  DA20       -0.2193
    397  C5        -7.9970   12.9400  -22.6240 C.ar   20  DA20        0.1518
    398  C6        -7.6880   14.1280  -21.9400 C.ar   20  DA20        0.1919
    399  N6        -6.6660   14.9240  -22.2650 N.pl3  20  DA20       -0.1054
    400  N1        -8.4750   14.4750  -20.8990 N.ar   20  DA20       -0.2040
    401  C2        -9.4980   13.6760  -20.5740 C.ar   20  DA20        0.2016
    402  N3        -9.8880   12.5360  -21.1400 N.ar   20  DA20       -0.2048
    403  C4        -9.0870   12.2200  -22.1710 C.ar   20  DA20        0.1691
    404  P        -13.0660   11.1280  -26.5840 P.3    21  DT21        0.2141
    405  OP1      -14.3910   10.5480  -26.9500 O.3    21  DT21       -0.4373
    406  OP2      -11.9180   11.0600  -27.5490 O.2    21  DT21       -0.5172
    407  O5'      -13.2970   12.6110  -26.0520 O.3    21  DT21       -0.3114
    408  C5'      -14.3450   12.8860  -25.1230 C.3    21  DT21        0.1812
    409  C4'      -14.2040   14.2920  -24.5810 C.3    21  DT21        0.1775
    410  O4'      -12.9930   14.4140  -23.7630 O.3    21  DT21       -0.3326
    411  C3'      -13.9790   15.3400  -25.6410 C.3    21  DT21        0.1859
    412  O3'      -15.1670   15.6710  -26.3580 O.3    21  DT21       -0.2202
    413  C2'      -13.3620   16.4680  -24.8320 C.3    21  DT21        0.0895
    414  C1'      -12.4160   15.6880  -23.9340 C.3    21  DT21        0.2107
    415  N1       -11.0770   15.4750  -24.5520 N.ar   21  DT21       -0.2573
    416  C2       -10.1950   16.5360  -24.4820 C.ar   21  DT21        0.3344
    417  O2       -10.4870   17.6120  -23.9900 O.3    21  DT21       -0.3054
    418  N3        -8.9510   16.2930  -25.0120 N.ar   21  DT21       -0.1548
    419  C4        -8.5110   15.1220  -25.5910 C.ar   21  DT21        0.2804
    420  O4        -7.3620   15.0540  -26.0230 O.2    21  DT21       -0.2654
    421  C5        -9.4850   14.0680  -25.6270 C.ar   21  DT21        0.0534
    422  C6       -10.7020   14.2770  -25.1190 C.ar   21  DT21        0.0824
    423  C7        -9.1020   12.7530  -26.2390 C.3    21  DT21        0.0377
    424  P        -15.0710   15.7360  -27.9520 P.3    22  DC22        0.4149
    425  OP1      -16.3420   15.2620  -28.5500 O.3    22  DC22       -0.1481
    426  OP2      -13.9840   16.1250  -28.8520 O.2    22  DC22       -0.2668
    427  O5'      -15.4590   16.9330  -26.9730 O.3    22  DC22       -0.2177
    428  C5'      -15.8150   18.1510  -27.5830 C.3    22  DC22        0.2140
    429  C4'      -14.9880   19.3190  -27.0800 C.3    22  DC22        0.1776
    430  O4'      -13.7990   18.8700  -26.4010 O.3    22  DC22       -0.3326
    431  C3'      -14.4260   20.1940  -28.1950 C.3    22  DC22        0.1559
    432  O3'      -15.4190   20.9790  -28.8820 O.3    22  DC22       -0.3138
    433  C2'      -13.4120   20.9710  -27.3790 C.3    22  DC22        0.0866
    434  C1'      -12.8180   19.8970  -26.4920 C.3    22  DC22        0.2106
    435  N1       -11.5850   19.4190  -27.0590 N.ar   22  DC22       -0.2556
    436  C2       -10.3690   20.1060  -26.9760 C.ar   22  DC22        0.3531
    437  O2       -10.3740   21.2850  -26.5830 O.2    22  DC22       -0.2443
    438  N3        -9.2260   19.4680  -27.3250 N.ar   22  DC22       -0.1739
    439  C4        -9.2700   18.2020  -27.7410 C.ar   22  DC22        0.1759
    440  N4        -8.1180   17.6140  -28.0750 N.pl3  22  DC22       -0.1070
    441  C5       -10.4920   17.4880  -27.8320 C.ar   22  DC22        0.0566
    442  C6       -11.6180   18.1220  -27.4870 C.ar   22  DC22        0.0849
    443  P        -15.3130   21.1610  -30.6130 P.3    23  DG23        0.2141
    444  OP1      -16.4290   21.9790  -31.2740 O.2    23  DG23       -0.5172
    445  OP2      -15.1430   19.7010  -30.9690 O.3    23  DG23       -0.4373
    446  O5'      -13.9240   21.8700  -30.9340 O.3    23  DG23       -0.3114
    447  C5'      -13.8660   23.2940  -30.7530 C.3    23  DG23        0.1811
    448  C4'      -12.4500   23.6790  -31.0730 C.3    23  DG23        0.1746
    449  O4'      -11.5630   22.8650  -30.2700 O.3    23  DG23       -0.3327
    450  C3'      -12.0530   23.2890  -32.4770 C.3    23  DG23        0.1558
    451  O3'      -12.4980   24.2410  -33.3800 O.3    23  DG23       -0.3138
    452  C2'      -10.5390   23.2290  -32.3790 C.3    23  DG23        0.0865
    453  C1'      -10.3990   22.5520  -31.0290 C.3    23  DG23        0.2094
    454  N9       -10.1580   21.2260  -31.2340 N.ar   23  DG23       -0.2713
    455  C8       -11.0490   20.2260  -30.9280 C.ar   23  DG23        0.1816
    456  N7       -10.6060   19.0330  -31.2190 N.ar   23  DG23       -0.2173
    457  C5        -9.3480   19.2550  -31.7480 C.ar   23  DG23        0.1748
    458  C6        -8.3820   18.3430  -32.2460 C.ar   23  DG23        0.3023
    459  O6        -8.4570   17.1100  -32.3160 O.2    23  DG23       -0.2633
    460  N1        -7.2340   18.9930  -32.6920 N.ar   23  DG23       -0.1709
    461  C2        -7.0410   20.3530  -32.6620 C.ar   23  DG23        0.2606
    462  N2        -5.8680   20.7940  -33.1360 N.pl3  23  DG23       -0.0859
    463  N3        -7.9290   21.2130  -32.2040 N.ar   23  DG23       -0.1918
    464  C4        -9.0520   20.6050  -31.7660 C.ar   23  DG23        0.1722
    465  P        -12.7880   23.7210  -34.7600 P.3    24  DC24        0.2141
    466  OP1      -13.7060   24.7930  -35.2050 O.3    24  DC24       -0.4373
    467  OP2      -12.9870   22.3390  -35.2520 O.2    24  DC24       -0.5172
    468  O5'      -11.2890   24.1510  -35.1010 O.3    24  DC24       -0.3114
    469  C5'      -10.9690   24.5680  -36.4190 C.3    24  DC24        0.1811
    470  C4'       -9.5500   24.1790  -36.7980 C.3    24  DC24        0.1746
    471  O4'       -8.9380   23.3570  -35.7610 O.3    24  DC24       -0.3327
    472  C3'       -9.4230   23.3200  -38.0400 C.3    24  DC24        0.1558
    473  O3'       -9.5880   24.0780  -39.2400 O.3    24  DC24       -0.3138
    474  C2'       -8.0160   22.7760  -37.8480 C.3    24  DC24        0.0866
    475  C1'       -8.0870   22.3900  -36.3760 C.3    24  DC24        0.2106
    476  N1        -8.6210   21.0090  -36.1880 N.ar   24  DC24       -0.2556
    477  C2        -7.7840   19.8970  -36.3370 C.ar   24  DC24        0.3531
    478  O2        -6.6450   20.0640  -36.8040 O.2    24  DC24       -0.2443
    479  N3        -8.2400   18.6750  -35.9710 N.ar   24  DC24       -0.1739
    480  C4        -9.4710   18.5420  -35.4760 C.ar   24  DC24        0.1759
    481  N4        -9.8760   17.3190  -35.1290 N.pl3  24  DC24       -0.1070
    482  C5       -10.3340   19.6560  -35.3170 C.ar   24  DC24        0.0566
    483  C6        -9.8810   20.8610  -35.6800 C.ar   24  DC24        0.0849
    484  P        -10.2810   23.4450  -40.4600 P.3    25  DA25        0.2141
    485  OP1      -10.4210   24.5780  -41.3950 O.2    25  DA25       -0.5172
    486  OP2      -11.4270   22.5580  -40.1960 O.3    25  DA25       -0.4373
    487  O5'       -9.0540   22.5400  -40.8990 O.3    25  DA25       -0.3114
    488  C5'       -7.7700   23.1000  -41.0360 C.3    25  DA25        0.1811
    489  C4'       -6.7750   22.0230  -41.3740 C.3    25  DA25        0.1746
    490  O4'       -6.5440   21.2020  -40.2010 O.3    25  DA25       -0.3327
    491  C3'       -7.2300   21.0270  -42.4280 C.3    25  DA25        0.1558
    492  O3'       -7.0780   21.4820  -43.7700 O.3    25  DA25       -0.3138
    493  C2'       -6.3360   19.8460  -42.1240 C.3    25  DA25        0.0865
    494  C1'       -6.3380   19.8570  -40.5950 C.3    25  DA25        0.2094
    495  N9        -7.4690   19.0230  -40.0850 N.ar   25  DA25       -0.2714
    496  C8        -8.7900   19.3150  -39.8630 C.ar   25  DA25        0.1815
    497  N7        -9.4980   18.2860  -39.4610 N.ar   25  DA25       -0.2193
    498  C5        -8.5810   17.2480  -39.4170 C.ar   25  DA25        0.1518
    499  C6        -8.7030   15.8920  -39.0670 C.ar   25  DA25        0.1919
    500  N6        -9.8490   15.3290  -38.6780 N.pl3  25  DA25       -0.1054
    501  N1        -7.5930   15.1260  -39.1320 N.ar   25  DA25       -0.2040
    502  C2        -6.4450   15.6910  -39.5210 C.ar   25  DA25        0.2016
    503  N3        -6.2050   16.9520  -39.8740 N.ar   25  DA25       -0.2048
    504  C4        -7.3270   17.6870  -39.8000 C.ar   25  DA25        0.1691
    505  P         -8.1820   21.0930  -44.9060 P.3    26  DT26        0.2141
    506  OP1       -7.6450   22.0280  -45.9150 O.2    26  DT26       -0.5172
    507  OP2       -9.6160   21.0430  -44.5680 O.3    26  DT26       -0.4373
    508  O5'       -7.7420   19.6580  -45.3980 O.3    26  DT26       -0.3114
    509  C5'       -6.4320   19.4880  -45.8490 C.3    26  DT26        0.1811
    510  C4'       -6.1200   18.0370  -45.6350 C.3    26  DT26        0.1746
    511  O4'       -6.2730   17.6780  -44.2390 O.3    26  DT26       -0.3327
    512  C3'       -7.0800   17.0840  -46.3360 C.3    26  DT26        0.1558
    513  O3'       -6.8870   17.1780  -47.7480 O.3    26  DT26       -0.3138
    514  C2'       -6.5990   15.8080  -45.6660 C.3    26  DT26        0.0866
    515  C1'       -6.5560   16.2940  -44.2060 C.3    26  DT26        0.2106
    516  N1        -7.7900   16.0840  -43.4440 N.ar   26  DT26       -0.2559
    517  C2        -8.0960   14.8470  -42.9090 C.ar   26  DT26        0.3545
    518  O2        -7.3860   13.8670  -43.0530 O.2    26  DT26       -0.2443
    519  N3        -9.2690   14.7960  -42.1960 N.ar   26  DT26       -0.1533
    520  C4       -10.1480   15.8350  -41.9690 C.ar   26  DT26        0.2804
    521  O4       -11.1630   15.6350  -41.3060 O.2    26  DT26       -0.2654
    522  C5        -9.7610   17.0860  -42.5580 C.ar   26  DT26        0.0534
    523  C6        -8.6250   17.1640  -43.2560 C.ar   26  DT26        0.0824
    524  C7       -10.6520   18.2770  -42.3680 C.3    26  DT26        0.0377
    525  P         -7.7900   16.2830  -48.7360 P.3    27  DT27        0.2141
    526  OP1       -7.7590   16.1460  -50.2130 O.2    27  DT27       -0.5172
    527  OP2       -8.9310   16.9790  -48.0830 O.3    27  DT27       -0.4373
    528  O5'       -7.6760   14.8190  -48.1020 O.3    27  DT27       -0.3114
    529  C5'       -6.6470   13.8940  -48.5190 C.3    27  DT27        0.1811
    530  C4'       -6.4890   12.7710  -47.5050 C.3    27  DT27        0.1746
    531  O4'       -6.6510   13.3090  -46.1610 O.3    27  DT27       -0.3327
    532  C3'       -7.4810   11.6150  -47.5490 C.3    27  DT27        0.1558
    533  O3'       -7.1070   10.6130  -48.4930 O.3    27  DT27       -0.3138
    534  C2'       -7.3980   11.0540  -46.1340 C.3    27  DT27        0.0866
    535  C1'       -7.2010   12.3170  -45.3060 C.3    27  DT27        0.2106
    536  N1        -8.3870   12.7900  -44.6830 N.ar   27  DT27       -0.2559
    537  C2        -8.8060   12.1550  -43.5290 C.ar   27  DT27        0.3545
    538  O2        -8.1810   11.2510  -43.0040 O.2    27  DT27       -0.2443
    539  N3        -9.9910   12.6170  -43.0090 N.ar   27  DT27       -0.1533
    540  C4       -10.7810   13.6280  -43.5150 C.ar   27  DT27        0.2804
    541  O4       -11.8200   13.9320  -42.9350 O.2    27  DT27       -0.2654
    542  C5       -10.2790   14.2370  -44.7150 C.ar   27  DT27        0.0534
    543  C6        -9.1300   13.8070  -45.2420 C.ar   27  DT27        0.0824
    544  C7       -11.0680   15.3470  -45.3440 C.3    27  DT27        0.0377
    545  P         -8.0890    9.3040  -48.7280 P.3    28  DA28        0.2141
    546  OP1       -7.5830    8.5050  -49.8800 O.2    28  DA28       -0.5172
    547  OP2       -9.1900   10.2560  -48.9360 O.3    28  DA28       -0.4373
    548  O5'       -8.5360    8.3280  -47.5490 O.3    28  DA28       -0.3114
    549  C5'       -7.7240    7.1980  -47.1770 C.3    28  DA28        0.1811
    550  C4'       -8.1760    6.6410  -45.8480 C.3    28  DA28        0.1746
    551  O4'       -8.0950    7.6810  -44.8380 O.3    28  DA28       -0.3327
    552  C3'       -9.6180    6.1660  -45.7580 C.3    28  DA28        0.1558
    553  O3'       -9.7500    4.8530  -46.3080 O.3    28  DA28       -0.3138
    554  C2'       -9.8620    6.2090  -44.2530 C.3    28  DA28        0.0865
    555  C1'       -9.1050    7.4810  -43.8640 C.3    28  DA28        0.2094
    556  N9        -9.9350    8.6620  -43.9170 N.ar   28  DA28       -0.2714
    557  C8        -9.9850    9.6860  -44.8260 C.ar   28  DA28        0.1815
    558  N7       -10.9570   10.5400  -44.6080 N.ar   28  DA28       -0.2193
    559  C5       -11.5880   10.0430  -43.4790 C.ar   28  DA28        0.1518
    560  C6       -12.6950   10.4930  -42.7380 C.ar   28  DA28        0.1919
    561  N6       -13.3890   11.5930  -43.0400 N.pl3  28  DA28       -0.1054
    562  N1       -13.0690    9.7640  -41.6650 N.ar   28  DA28       -0.2040
    563  C2       -12.3730    8.6620  -41.3630 C.ar   28  DA28        0.2016
    564  N3       -11.3160    8.1400  -41.9800 N.ar   28  DA28       -0.2048
    565  C4       -10.9710    8.8860  -43.0430 C.ar   28  DA28        0.1691
    566  P        -11.4010    4.0060  -46.5030 P.3    29  DC29        0.2141
    567  OP1      -11.0100    2.5770  -46.5860 O.3    29  DC29       -0.4373
    568  OP2      -12.0810    4.6480  -47.6480 O.2    29  DC29       -0.5172
    569  O5'      -12.2830    4.2180  -45.1810 O.3    29  DC29       -0.3114
    570  C5'      -11.9210    3.4810  -44.0190 C.3    29  DC29        0.1811
    571  C4'      -12.5100    4.1000  -42.7700 C.3    29  DC29        0.1744
    572  O4'      -12.2360    5.5170  -42.7550 O.3    29  DC29       -0.3348
    573  C3'      -14.0200    4.0370  -42.6930 C.3    29  DC29        0.1555
    574  O3'      -14.4340    2.7970  -42.1720 O.3    29  DC29       -0.3139
    575  C2'      -14.3220    5.1570  -41.7100 C.3    29  DC29        0.0836
    576  C1'      -13.3120    6.2050  -42.1500 C.3    29  DC29        0.1999
    577  N1       -13.8590    7.1290  -43.1610 N.pl3  29  DC29       -0.2132
    578  C2       -14.8170    8.0760  -42.7820 C.2    29  DC29        0.4314
    579  O2       -15.2510    8.0540  -41.6170 O.3    29  DC29       -0.3065
    580  N3       -15.2420    8.9850  -43.6920 N.2    29  DC29        0.0237
    581  C4       -14.7480    8.9690  -44.9300 C.2    29  DC29        0.4172
    582  N4       -15.1970    9.8850  -45.7930 N.pl3  29  DC29        0.2162
    583  C5       -13.7770    8.0180  -45.3340 C.2    29  DC29        0.0937
    584  C6       -13.3600    7.1220  -44.4330 C.3    29  DC29        0.1340
    585  P        -15.7680    2.2600  -42.7130 P.3    30  DC30        0.2141
    586  OP1      -15.9960    0.7990  -42.7770 O.3    30  DC30       -0.4373
    587  OP2      -15.9550    3.1100  -43.9090 O.2    30  DC30       -0.5172
    588  O5'      -16.7570    2.9000  -41.6310 O.3    30  DC30       -0.3114
    589  C5'      -16.4190    2.8040  -40.2590 C.3    30  DC30        0.1812
    590  C4'      -16.8370    4.0380  -39.5010 C.3    30  DC30        0.1775
    591  O4'      -16.4570    5.2340  -40.2340 O.3    30  DC30       -0.3326
    592  C3'      -18.3300    4.2300  -39.3120 C.3    30  DC30        0.1864
    593  O3'      -18.9060    3.3780  -38.3390 O.3    30  DC30       -0.2133
    594  C2'      -18.3980    5.7110  -38.9650 C.3    30  DC30        0.0895
    595  C1'      -17.3870    6.2690  -39.9670 C.3    30  DC30        0.2107
    596  N1       -18.0450    6.8180  -40.8840 N.ar   30  DC30       -0.2556
    597  C2       -18.9520    7.8840  -40.8760 C.ar   30  DC30        0.3531
    598  O2       -19.3230    8.3450  -39.7830 O.2    30  DC30       -0.2443
    599  N3       -19.3990    8.3790  -42.0550 N.ar   30  DC30       -0.1739
    600  C4       -18.9750    7.8520  -43.2040 C.ar   30  DC30        0.1759
    601  N4       -19.4430    8.3730  -44.3400 N.pl3  30  DC30       -0.1070
    602  C5       -18.0560    6.7720  -43.2340 C.ar   30  DC30        0.0566
    603  C6       -17.6170    6.2860  -42.0670 C.ar   30  DC30        0.0849
    604  P        -20.8080    2.6380  -39.0170 P.3    31  DT31        0.3939
    605  OP1      -20.0390    2.6120  -37.7500 O.3    31  DT31       -0.1496
    606  OP2      -20.9690    1.4160  -39.8350 O.3    31  DT31       -0.1425
    607  O5'      -22.3110    3.1250  -38.7440 O.3    31  DT31       -0.2926
    608  C5'      -22.6250    4.0520  -37.7080 C.3    31  DT31        0.1828
    609  C4'      -22.1130    5.4360  -38.0180 C.3    31  DT31        0.1754
    610  O4'      -22.8580    5.9990  -39.1350 O.3    31  DT31       -0.3510
    611  C3'      -22.2360    6.4440  -36.8760 C.3    31  DT31        0.1844
    612  O3'      -21.1270    7.3420  -36.9350 O.3    31  DT31       -0.2134
    613  C2'      -23.5000    7.2110  -37.2440 C.3    31  DT31        0.0676
    614  C1'      -23.3410    7.2750  -38.7590 C.3    31  DT31        0.1450
    615  N1       -23.2900    6.9400  -41.0340 N.2    31  DT31       -0.1608
    616  C2       -23.2410    8.0720  -41.8250 C.1    31  DT31        0.2395
    617  O2       -22.7980    9.1370  -41.4340 O.2    31  DT31       -0.2041
    618  N3       -23.7320    7.9120  -43.0990 N.am   31  DT31       -0.0881
    619  C4       -24.2560    6.7600  -43.6470 C.2    31  DT31        0.2768
    620  O4       -24.6570    6.7710  -44.8090 O.2    31  DT31       -0.2676
    621  C5       -24.2740    5.6290  -42.7630 C.2    31  DT31        0.0541
    622  C6       -23.8020    5.7570  -41.5190 C.2    31  DT31        0.1126
    623  C7       -24.8260    4.3290  -43.2670 C.3    31  DT31        0.0376
    624  P        -20.0130    7.6300  -35.5980 P.3    32  DT32        0.3939
    625  OP1      -20.6940    7.8970  -34.3120 O.3    32  DT32       -0.1425
    626  OP2      -20.1320    8.6070  -36.7080 O.3    32  DT32       -0.1496
    627  O5'      -18.4550    7.3800  -35.3370 O.3    32  DT32       -0.2926
    628  C5'      -17.7290    6.7120  -36.3390 C.3    32  DT32        0.1828
    629  C4'      -16.3760    6.2580  -35.8600 C.3    32  DT32        0.1747
    630  O4'      -15.5870    5.9970  -37.0430 O.3    32  DT32       -0.3327
    631  C3'      -15.5730    7.3360  -35.1670 C.3    32  DT32        0.1558
    632  O3'      -14.3420    6.7790  -34.7720 O.3    32  DT32       -0.3138
    633  C2'      -15.3510    8.2560  -36.3500 C.3    32  DT32        0.0866
    634  C1'      -15.0850    7.2460  -37.4750 C.3    32  DT32        0.2107
    635  N1       -15.7300    7.9560  -38.7560 N.ar   32  DT32       -0.2549
    636  C2       -14.9500    8.1350  -39.8830 C.ar   32  DT32        0.3685
    637  O2       -14.0170    7.4060  -40.1670 O.2    32  DT32       -0.2430
    638  N3       -15.3030    9.2060  -40.6690 N.ar   32  DT32       -0.0772
    639  C4       -16.3340   10.0940  -40.4460 C.ar   32  DT32        0.2948
    640  O4       -16.5280   11.0080  -41.2440 O.2    32  DT32       -0.2641
    641  C5       -17.0960    9.8420  -39.2560 C.ar   32  DT32        0.0546
    642  C6       -16.7750    8.8080  -38.4740 C.ar   32  DT32        0.0825
    643  C7       -18.2390   10.7550  -38.9260 C.3    32  DT32        0.0377
    644  P        -13.2140    7.4490  -34.1850 P.3    33  DA33        0.2141
    645  OP1      -12.6280    6.6830  -33.0610 O.3    33  DA33       -0.4373
    646  OP2      -13.2730    8.9280  -34.1660 O.2    33  DA33       -0.5172
    647  O5'      -12.3820    7.0880  -35.5070 O.3    33  DA33       -0.3114
    648  C5'      -11.6570    5.8680  -35.6240 C.3    33  DA33        0.1811
    649  C4'      -10.6660    5.8800  -36.7710 C.3    33  DA33        0.1746
    650  O4'      -11.2660    6.4720  -37.9530 O.3    33  DA33       -0.3327
    651  C3'       -9.3630    6.6450  -36.5600 C.3    33  DA33        0.1558
    652  O3'       -8.3860    5.8300  -35.9290 O.3    33  DA33       -0.3138
    653  C2'       -8.9690    7.0690  -37.9710 C.3    33  DA33        0.0865
    654  C1'      -10.3220    7.2460  -38.6590 C.3    33  DA33        0.2094
    655  N9       -10.6890    8.6230  -38.6800 N.ar   33  DA33       -0.2714
    656  C8       -11.7140    9.1620  -37.9470 C.ar   33  DA33        0.1815
    657  N7       -11.9420   10.4270  -38.2070 N.ar   33  DA33       -0.2193
    658  C5       -11.0020   10.7410  -39.1770 C.ar   33  DA33        0.1518
    659  C6       -10.7210   11.9300  -39.8720 C.ar   33  DA33        0.1919
    660  N6       -11.3910   13.0700  -39.6870 N.pl3  33  DA33       -0.1054
    661  N1        -9.7170   11.9070  -40.7740 N.ar   33  DA33       -0.2040
    662  C2        -9.0470   10.7630  -40.9590 C.ar   33  DA33        0.2016
    663  N3        -9.2190    9.5830  -40.3680 N.ar   33  DA33       -0.2048
    664  C4       -10.2230    9.6400  -39.4770 C.ar   33  DA33        0.1691
    665  P         -7.0580    6.2880  -35.4420 P.3    34  DT34        0.2141
    666  OP1       -6.3560    5.1260  -34.8550 O.2    34  DT34       -0.5172
    667  OP2       -7.7870    7.2250  -34.5630 O.3    34  DT34       -0.4373
    668  O5'       -6.0370    7.1240  -36.3550 O.3    34  DT34       -0.3114
    669  C5'       -5.9540    6.8910  -37.7590 C.3    34  DT34        0.1811
    670  C4'       -5.3990    8.1040  -38.4920 C.3    34  DT34        0.1746
    671  O4'       -6.4970    8.8760  -39.0430 O.3    34  DT34       -0.3327
    672  C3'       -4.6310    9.1210  -37.6550 C.3    34  DT34        0.1558
    673  O3'       -3.2830    8.7080  -37.4880 O.3    34  DT34       -0.3138
    674  C2'       -4.7210   10.3450  -38.5580 C.3    34  DT34        0.0866
    675  C1'       -6.1530   10.2500  -39.0600 C.3    34  DT34        0.2106
    676  N1        -7.0640   11.0030  -38.1920 N.ar   34  DT34       -0.2559
    677  C2        -7.1630   12.3690  -38.3690 C.ar   34  DT34        0.3545
    678  O2        -6.5380   12.9760  -39.2210 O.2    34  DT34       -0.2443
    679  N3        -8.0240   13.0060  -37.5080 N.ar   34  DT34       -0.1533
    680  C4        -8.7790   12.4260  -36.5090 C.ar   34  DT34        0.2804
    681  O4        -9.5080   13.1310  -35.8160 O.2    34  DT34       -0.2654
    682  C5        -8.6200   11.0050  -36.3880 C.ar   34  DT34        0.0534
    683  C6        -7.7900   10.3600  -37.2120 C.ar   34  DT34        0.0824
    684  C7        -9.3990   10.2820  -35.3300 C.3    34  DT34        0.0377
    685  P         -2.2810    9.3540  -36.3220 P.3    35  DA35        0.2141
    686  OP1       -1.0030    8.6400  -36.1220 O.2    35  DA35       -0.5172
    687  OP2       -3.1980    9.5520  -35.1780 O.3    35  DA35       -0.4373
    688  O5'       -2.0060   10.8390  -36.8510 O.3    35  DA35       -0.3114
    689  C5'       -1.3170   11.0320  -38.0800 C.3    35  DA35        0.1811
    690  C4'       -1.3370   12.4810  -38.4880 C.3    35  DA35        0.1746
    691  O4'       -2.6760   12.8690  -38.8790 O.3    35  DA35       -0.3327
    692  C3'       -1.0010   13.4520  -37.3720 C.3    35  DA35        0.1558
    693  O3'        0.3870   13.5720  -37.1500 O.3    35  DA35       -0.3138
    694  C2'       -1.6590   14.7430  -37.8270 C.3    35  DA35        0.0865
    695  C1'       -2.9290   14.1980  -38.4710 C.3    35  DA35        0.2094
    696  N9        -4.0430   14.2110  -37.5130 N.ar   35  DA35       -0.2714
    697  C8        -4.5190   13.2070  -36.7110 C.ar   35  DA35        0.1815
    698  N7        -5.5360   13.5650  -35.9630 N.ar   35  DA35       -0.2193
    699  C5        -5.7400   14.8950  -36.2950 C.ar   35  DA35        0.1518
    700  C6        -6.6710   15.8490  -35.8490 C.ar   35  DA35        0.1919
    701  N6        -7.6100   15.5940  -34.9350 N.pl3  35  DA35       -0.1054
    702  N1        -6.6030   17.0880  -36.3820 N.ar   35  DA35       -0.2040
    703  C2        -5.6620   17.3420  -37.2980 C.ar   35  DA35        0.2016
    704  N3        -4.7330   16.5290  -37.7970 N.ar   35  DA35       -0.2048
    705  C4        -4.8270   15.3070  -37.2470 C.ar   35  DA35        0.1691
    706  P          0.8670   13.8750  -35.5640 P.3    36  DC36        0.2141
    707  OP1        2.3340   13.7380  -35.7170 O.2    36  DC36       -0.5172
    708  OP2        0.1480   12.9910  -34.6180 O.3    36  DC36       -0.4373
    709  O5'        0.5290   15.4050  -35.2110 O.3    36  DC36       -0.3114
    710  C5'        1.4540   16.4410  -35.5250 C.3    36  DC36        0.1811
    711  C4'        0.7410   17.7110  -35.9510 C.3    36  DC36        0.1746
    712  O4'       -0.5780   17.3960  -36.4720 O.3    36  DC36       -0.3327
    713  C3'        0.4450   18.6990  -34.8310 C.3    36  DC36        0.1558
    714  O3'        1.5940   19.4640  -34.4760 O.3    36  DC36       -0.3138
    715  C2'       -0.6520   19.5260  -35.4910 C.3    36  DC36        0.0866
    716  C1'       -1.4990   18.3870  -36.0430 C.3    36  DC36        0.2106
    717  N1        -2.4430   17.6980  -34.9850 N.ar   36  DC36       -0.2556
    718  C2        -3.6040   18.3460  -34.5490 C.ar   36  DC36        0.3531
    719  O2        -3.7650   19.5440  -34.8380 O.2    36  DC36       -0.2443
    720  N3        -4.5150   17.6520  -33.8250 N.ar   36  DC36       -0.1739
    721  C4        -4.2990   16.3680  -33.5380 C.ar   36  DC36        0.1759
    722  N4        -5.2240   15.7240  -32.8220 N.pl3  36  DC36       -0.1070
    723  C5        -3.1290   15.6930  -33.9710 C.ar   36  DC36        0.0566
    724  C6        -2.2320   16.3820  -34.6850 C.ar   36  DC36        0.0849
    725  P          1.8370   19.6180  -33.1590 P.3    37  DC37        0.2141
    726  OP1        3.0740   20.4050  -33.3830 O.2    37  DC37       -0.5172
    727  OP2        1.7620   18.6250  -32.0640 O.3    37  DC37       -0.4373
    728  O5'        0.6180   20.6100  -32.8590 O.3    37  DC37       -0.3114
    729  C5'        0.7090   21.9590  -33.2840 C.3    37  DC37        0.1811
    730  C4'       -0.5290   22.7340  -32.9220 C.3    37  DC37        0.1746
    731  O4'       -1.7060   21.9580  -33.2710 O.3    37  DC37       -0.3327
    732  C3'       -0.7420   23.0180  -31.4450 C.3    37  DC37        0.1558
    733  O3'        0.0550   24.0700  -30.9350 O.3    37  DC37       -0.3138
    734  C2'       -2.2300   23.3250  -31.4170 C.3    37  DC37        0.0866
    735  C1'       -2.7470   22.2430  -32.3620 C.3    37  DC37        0.2106
    736  N1        -3.1660   20.9620  -31.6140 N.ar   37  DC37       -0.2556
    737  C2        -4.2560   20.9580  -30.7360 C.ar   37  DC37        0.3531
    738  O2        -4.8310   22.0330  -30.4920 O.2    37  DC37       -0.2443
    739  N3        -4.6500   19.7880  -30.1790 N.ar   37  DC37       -0.1739
    740  C4        -4.0020   18.6590  -30.4700 C.ar   37  DC37        0.1759
    741  N4        -4.4260   17.5300  -29.8970 N.pl3  37  DC37       -0.1070
    742  C5        -2.8950   18.6420  -31.3570 C.ar   37  DC37        0.0566
    743  C6        -2.5090   19.7990  -31.9050 C.ar   37  DC37        0.0849
    744  P          0.3340   23.8780  -29.7350 P.3    38  DA38        0.2141
    745  OP1        1.2290   24.9670  -29.2960 O.3    38  DA38       -0.4373
    746  OP2        0.7230   22.4580  -29.5460 O.2    38  DA38       -0.5172
    747  O5'       -1.0430   24.0190  -28.9350 O.3    38  DA38       -0.3114
    748  C5'       -1.7110   25.2700  -28.9330 C.3    38  DA38        0.1811
    749  C4'       -3.0770   25.1770  -28.3020 C.3    38  DA38        0.1746
    750  O4'       -3.8350   24.1030  -28.9110 O.3    38  DA38       -0.3327
    751  C3'       -3.1060   24.8190  -26.8270 C.3    38  DA38        0.1558
    752  O3'       -2.8040   25.9090  -25.9900 O.3    38  DA38       -0.3138
    753  C2'       -4.5230   24.2950  -26.6440 C.3    38  DA38        0.0865
    754  C1'       -4.7020   23.5360  -27.9500 C.3    38  DA38        0.2094
    755  N9        -4.3760   22.1490  -27.7400 N.ar   38  DA38       -0.2714
    756  C8        -3.1770   21.5500  -28.0270 C.ar   38  DA38        0.1815
    757  N7        -3.1710   20.2530  -27.8270 N.ar   38  DA38       -0.2193
    758  C5        -4.4540   19.9820  -27.3760 C.ar   38  DA38        0.1518
    759  C6        -5.0870   18.7880  -26.9880 C.ar   38  DA38        0.1919
    760  N6        -4.4860   17.5970  -26.9950 N.pl3  38  DA38       -0.1054
    761  N1        -6.3750   18.8640  -26.5880 N.ar   38  DA38       -0.2040
    762  C2        -6.9760   20.0590  -26.5830 C.ar   38  DA38        0.2016
    763  N3        -6.4870   21.2480  -26.9250 N.ar   38  DA38       -0.2048
    764  C4        -5.2060   21.1400  -27.3160 C.ar   38  DA38        0.1691
    765  P         -2.0450   25.6120  -24.6360 P.3    39  DG39        0.2141
    766  OP1       -1.7470   27.0140  -24.2270 O.3    39  DG39       -0.4373
    767  OP2       -0.9890   24.5750  -24.4780 O.2    39  DG39       -0.5172
    768  O5'       -3.3670   25.1350  -23.8620 O.3    39  DG39       -0.3114
    769  C5'       -4.3230   26.0980  -23.3970 C.3    39  DG39        0.1811
    770  C4'       -5.7270   25.5100  -23.3200 C.3    39  DG39        0.1746
    771  O4'       -5.9640   24.5780  -24.4040 O.3    39  DG39       -0.3327
    772  C3'       -6.1410   24.7630  -22.0560 C.3    39  DG39        0.1558
    773  O3'       -6.5490   25.6940  -21.0410 O.3    39  DG39       -0.3138
    774  C2'       -7.3160   23.9090  -22.5440 C.3    39  DG39        0.0865
    775  C1'       -6.9350   23.6310  -23.9990 C.3    39  DG39        0.2093
    776  N9        -6.2490   22.2660  -24.1780 N.ar   39  DG39       -0.2728
    777  C8        -4.9130   21.9600  -24.2690 C.ar   39  DG39        0.1814
    778  N7        -4.6840   20.6810  -24.3860 N.ar   39  DG39       -0.2177
    779  C5        -5.9410   20.1050  -24.3740 C.ar   39  DG39        0.1711
    780  C6        -6.3340   18.7450  -24.4660 C.2    39  DG39        0.2985
    781  O6        -5.6140   17.7450  -24.5820 O.2    39  DG39       -0.2655
    782  N1        -7.7170   18.5980  -24.4110 N.am   39  DG39       -0.1042
    783  C2        -8.6110   19.6340  -24.2840 C.1    39  DG39        0.1459
    784  N2        -9.9070   19.2950  -24.2500 N.2    39  DG39       -0.0041
    785  N3        -8.2610   20.9020  -24.1960 N.pl3  39  DG39       -0.1259
    786  C4        -6.9220   21.0690  -24.2460 C.ar   39  DG39        0.1688
    787  P         -6.5310   25.2690  -19.4250 P.3    40  DC40        0.2141
    788  OP1       -6.6650   26.3440  -18.4160 O.3    40  DC40       -0.4373
    789  OP2       -5.2850   24.4700  -19.4930 O.2    40  DC40       -0.5172
    790  O5'       -7.7570   24.2510  -19.2670 O.3    40  DC40       -0.3114
    791  C5'       -9.0980   24.7290  -19.3230 C.3    40  DC40        0.1811
    792  C4'      -10.0950   23.5930  -19.1620 C.3    40  DC40        0.1746
    793  O4'      -10.1060   22.7620  -20.3520 O.3    40  DC40       -0.3327
    794  C3'       -9.7960   22.6200  -18.0300 C.3    40  DC40        0.1558
    795  O3'      -10.2540   23.1400  -16.7840 O.3    40  DC40       -0.3138
    796  C2'      -10.6240   21.4230  -18.4800 C.3    40  DC40        0.0866
    797  C1'      -10.3390   21.4160  -19.9810 C.3    40  DC40        0.2106
    798  N1        -9.0630   20.6440  -20.4370 N.ar   40  DC40       -0.2556
    799  C2        -9.2380   19.2890  -20.7440 C.ar   40  DC40        0.3531
    800  O2       -10.3870   18.8170  -20.7300 O.2    40  DC40       -0.2443
    801  N3        -8.1530   18.5360  -21.0440 N.ar   40  DC40       -0.1739
    802  C4        -6.9380   19.0850  -21.0460 C.ar   40  DC40        0.1759
    803  N4        -5.9000   18.3030  -21.3480 N.pl3  40  DC40       -0.1070
    804  C5        -6.7400   20.4560  -20.7380 C.ar   40  DC40        0.0566
    805  C6        -7.8130   21.1960  -20.4420 C.ar   40  DC40        0.0849
    806  P         -9.2960   23.1260  -15.4700 P.3    41  DT41        0.2141
    807  OP1       -9.1820   24.3260  -14.6090 O.3    41  DT41       -0.4373
    808  OP2       -8.1470   22.1960  -15.5890 O.2    41  DT41       -0.5172
    809  O5'      -10.4940   22.1830  -14.9770 O.3    41  DT41       -0.3114
    810  C5'      -10.2610   21.1150  -14.0670 C.3    41  DT41        0.1811
    811  C4'      -11.0510   19.8830  -14.4400 C.3    41  DT41        0.1746
    812  O4'      -10.9090   19.6340  -15.8630 O.3    41  DT41       -0.3327
    813  C3'      -10.6120   18.5790  -13.7890 C.3    41  DT41        0.1558
    814  O3'      -11.1450   18.4000  -12.4870 O.3    41  DT41       -0.3138
    815  C2'      -11.0840   17.5310  -14.7910 C.3    41  DT41        0.0866
    816  C1'      -10.8220   18.2470  -16.1140 C.3    41  DT41        0.2106
    817  N1        -9.4280   17.8650  -16.8450 N.ar   41  DT41       -0.2559
    818  C2        -9.4700   16.7600  -17.6740 C.ar   41  DT41        0.3545
    819  O2       -10.4230   16.0020  -17.7240 O.2    41  DT41       -0.2443
    820  N3        -8.3500   16.5720  -18.4480 N.ar   41  DT41       -0.1533
    821  C4        -7.2190   17.3590  -18.4750 C.ar   41  DT41        0.2804
    822  O4        -6.2920   17.0620  -19.2250 O.2    41  DT41       -0.2654
    823  C5        -7.2510   18.4860  -17.5850 C.ar   41  DT41        0.0534
    824  C6        -8.3270   18.6930  -16.8220 C.ar   41  DT41        0.0824
    825  C7        -6.0650   19.4040  -17.5400 C.3    41  DT41        0.0377
    826  P        -10.4570   17.3660  -11.5060 P.3    42  DT42        0.2141
    827  OP1      -11.1310   17.3070  -10.1970 O.3    42  DT42       -0.4373
    828  OP2       -9.0140   17.6850  -11.5710 O.2    42  DT42       -0.5172
    829  O5'      -10.6610   15.9820  -12.2550 O.3    42  DT42       -0.3114
    830  C5'      -11.9240   15.3270  -12.2440 C.3    42  DT42        0.1811
    831  C4'      -11.9130   14.1230  -13.1590 C.3    42  DT42        0.1746
    832  O4'      -11.6170   14.5590  -14.5090 O.3    42  DT42       -0.3327
    833  C3'      -10.8630   13.0560  -12.9220 C.3    42  DT42        0.1558
    834  O3'      -11.2070   12.1540  -11.8780 O.3    42  DT42       -0.3138
    835  C2'      -10.8770   12.3260  -14.2530 C.3    42  DT42        0.0866
    836  C1'      -11.0650   13.4820  -15.2330 C.3    42  DT42        0.2106
    837  N1        -9.8080   13.8970  -15.7810 N.ar   42  DT42       -0.2559
    838  C2        -9.3610   13.3630  -16.9740 C.ar   42  DT42        0.3545
    839  O2       -10.0150   12.5770  -17.6370 O.2    42  DT42       -0.2443
    840  N3        -8.1130   13.7820  -17.3680 N.ar   42  DT42       -0.1533
    841  C4        -7.2850   14.6620  -16.7020 C.ar   42  DT42        0.2804
    842  O4        -6.1900   14.9430  -17.1820 O.2    42  DT42       -0.2654
    843  C5        -7.8190   15.1720  -15.4710 C.ar   42  DT42        0.0534
    844  C6        -9.0310   14.7820  -15.0650 C.ar   42  DT42        0.0824
    845  C7        -6.9930   16.1360  -14.6720 C.3    42  DT42        0.0377
    846  P        -10.0770   11.0870  -11.2870 P.3    43  DA43        0.2141
    847  OP1      -10.2550   11.3890   -9.8490 O.3    43  DA43       -0.4373
    848  OP2       -8.8470   11.5200  -11.9830 O.2    43  DA43       -0.5172
    849  O5'      -10.1300    9.5070  -11.5410 O.3    43  DA43       -0.3114
    850  C5'      -10.9460    8.9850  -12.5820 C.3    43  DA43        0.1811
    851  C4'      -10.1580    8.3830  -13.7260 C.3    43  DA43        0.1746
    852  O4'       -9.8030    9.4000  -14.7010 O.3    43  DA43       -0.3327
    853  C3'       -8.8290    7.7100  -13.4000 C.3    43  DA43        0.1558
    854  O3'       -8.9890    6.4410  -12.7790 O.3    43  DA43       -0.3138
    855  C2'       -8.1650    7.6690  -14.7770 C.3    43  DA43        0.0865
    856  C1'       -8.6240    9.0040  -15.3780 C.3    43  DA43        0.2094
    857  N9        -7.9170   10.1140  -15.3840 N.ar   43  DA43       -0.2714
    858  C8        -8.1520   11.1890  -14.5680 C.ar   43  DA43        0.1815
    859  N7        -7.2510   12.1380  -14.6690 N.ar   43  DA43       -0.2193
    860  C5        -6.3630   11.6520  -15.6160 C.ar   43  DA43        0.1518
    861  C6        -5.1860   12.1850  -16.1700 C.ar   43  DA43        0.1919
    862  N6        -4.6840   13.3750  -15.8340 N.pl3  43  DA43       -0.1054
    863  N1        -4.5360   11.4430  -17.0920 N.ar   43  DA43       -0.2040
    864  C2        -5.0410   10.2500  -17.4280 C.ar   43  DA43        0.2016
    865  N3        -6.1370    9.6440  -16.9790 N.ar   43  DA43       -0.2048
    866  C4        -6.7590   10.4060  -16.0640 C.ar   43  DA43        0.1691
    867  P         -7.9300    5.7710  -11.8480 P.3    44  DT44        0.2141
    868  OP1       -8.0250    4.4280  -11.2180 O.2    44  DT44       -0.5172
    869  OP2       -7.8070    6.9830  -10.9850 O.3    44  DT44       -0.4373
    870  O5'       -6.6890    5.7560  -12.8380 O.3    44  DT44       -0.3114
    871  C5'       -6.5730    4.7410  -13.8200 C.3    44  DT44        0.1811
    872  C4'       -5.1420    4.6040  -14.2290 C.3    44  DT44        0.1746
    873  O4'       -4.8130    5.6900  -15.1310 O.3    44  DT44       -0.3327
    874  C3'       -4.1620    4.7340  -13.0760 C.3    44  DT44        0.1558
    875  O3'       -3.9660    3.5290  -12.3280 O.3    44  DT44       -0.3138
    876  C2'       -2.9080    5.2230  -13.7840 C.3    44  DT44        0.0866
    877  C1'       -3.4940    6.1300  -14.8760 C.3    44  DT44        0.2106
    878  N1        -3.5900    7.5430  -14.3710 N.ar   44  DT44       -0.2559
    879  C2        -2.4250    8.2710  -14.5260 C.ar   44  DT44        0.3545
    880  O2        -1.4440    7.8390  -15.1040 O.2    44  DT44       -0.2443
    881  N3        -2.4490    9.5300  -13.9760 N.ar   44  DT44       -0.1533
    882  C4        -3.4970   10.1210  -13.3020 C.ar   44  DT44        0.2804
    883  O4        -3.3690   11.2620  -12.8640 O.2    44  DT44       -0.2654
    884  C5        -4.6700    9.3010  -13.1820 C.ar   44  DT44        0.0534
    885  C6        -4.6740    8.0730  -13.7070 C.ar   44  DT44        0.0824
    886  C7        -5.8650    9.8550  -12.4640 C.3    44  DT44        0.0377
    887  P         -3.4300    3.5230  -10.7330 P.3    45  DT45        0.2141
    888  OP1       -4.0100    2.1670  -10.7640 O.2    45  DT45       -0.5172
    889  OP2       -4.0470    4.5500   -9.8580 O.3    45  DT45       -0.4373
    890  O5'       -1.9040    3.3650  -10.3220 O.3    45  DT45       -0.3114
    891  C5'       -0.9860    2.8090  -11.2670 C.3    45  DT45        0.1811
    892  C4'        0.2050    3.7210  -11.4970 C.3    45  DT45        0.1746
    893  O4'       -0.0930    4.8420  -12.3710 O.3    45  DT45       -0.3327
    894  C3'        0.8190    4.4000  -10.2950 C.3    45  DT45        0.1558
    895  O3'        1.5560    3.4830   -9.5190 O.3    45  DT45       -0.3138
    896  C2'        1.7380    5.4110  -10.9670 C.3    45  DT45        0.0866
    897  C1'        0.8710    5.8650  -12.1400 C.3    45  DT45        0.2106
    898  N1         0.2090    7.0810  -11.7330 N.ar   45  DT45       -0.2559
    899  C2         0.8500    8.2910  -11.9220 C.ar   45  DT45        0.3545
    900  O2         1.9880    8.3810  -12.3470 O.2    45  DT45       -0.2443
    901  N3         0.1070    9.3990  -11.5930 N.ar   45  DT45       -0.1533
    902  C4        -1.1820    9.4190  -11.1050 C.ar   45  DT45        0.2804
    903  O4        -1.7190   10.4960  -10.8560 O.2    45  DT45       -0.2654
    904  C5        -1.7790    8.1230  -10.9350 C.ar   45  DT45        0.0534
    905  C6        -1.0790    7.0290  -11.2480 C.ar   45  DT45        0.0824
    906  C7        -3.1810    8.0380  -10.4080 C.3    45  DT45        0.0377
    907  P          1.5840    3.7400   -8.1330 P.3    46  DC46        0.2141
    908  OP1        2.1190    2.4630   -7.5870 O.3    46  DC46       -0.4373
    909  OP2        0.3150    4.3050   -7.5910 O.2    46  DC46       -0.5172
    910  O5'        2.7240    4.8390   -8.0780 O.3    46  DC46       -0.3114
    911  C5'        3.8680    4.6690   -8.8910 C.3    46  DC46        0.1811
    912  C4'        4.6350    5.9450   -8.9500 C.3    46  DC46        0.1746
    913  O4'        4.0090    6.8380   -9.8950 O.3    46  DC46       -0.3327
    914  C3'        4.6110    6.7370   -7.6560 C.3    46  DC46        0.1558
    915  O3'        5.5560    6.2380   -6.7270 O.3    46  DC46       -0.3138
    916  C2'        5.0040    8.1090   -8.1520 C.3    46  DC46        0.0866
    917  C1'        4.2210    8.1750   -9.4640 C.3    46  DC46        0.2106
    918  N1         2.9430    8.8200   -9.2740 N.ar   46  DC46       -0.2556
    919  C2         2.8830   10.2180   -9.2200 C.ar   46  DC46        0.3531
    920  O2         3.9200   10.8690   -9.4330 O.2    46  DC46       -0.2443
    921  N3         1.7020   10.8170   -8.9380 N.ar   46  DC46       -0.1739
    922  C4         0.6150   10.0780   -8.7150 C.ar   46  DC46        0.1759
    923  N4        -0.5270   10.7120   -8.4410 N.pl3  46  DC46       -0.1070
    924  C5         0.6540    8.6610   -8.7650 C.ar   46  DC46        0.0566
    925  C6         1.8230    8.0730   -9.0440 C.ar   46  DC46        0.0849
    926  P          5.2280    6.3080   -5.2040 P.3    47  DA47        0.2141
    927  OP1        6.4900    5.8560   -4.5680 O.2    47  DA47       -0.5172
    928  OP2        3.9750    6.1720   -4.4080 O.3    47  DA47       -0.4373
    929  O5'        5.4640    7.8210   -5.6730 O.3    47  DA47       -0.3114
    930  C5'        6.7990    8.2610   -5.8400 C.3    47  DA47        0.1811
    931  C4'        6.8970    9.7680   -5.8430 C.3    47  DA47        0.1746
    932  O4'        6.1230   10.2960   -6.9680 O.3    47  DA47       -0.3327
    933  C3'        6.3590   10.4600   -4.5870 C.3    47  DA47        0.1558
    934  O3'        7.2530   10.4560   -3.4390 O.3    47  DA47       -0.3138
    935  C2'        6.0170   11.8420   -5.1580 C.3    47  DA47        0.0865
    936  C1'        5.4180   11.4550   -6.5370 C.3    47  DA47        0.2094
    937  N9         3.9470   11.1630   -6.4720 N.ar   47  DA47       -0.2714
    938  C8         3.3360    9.9370   -6.4430 C.ar   47  DA47        0.1815
    939  N7         2.0260    9.9970   -6.4960 N.ar   47  DA47       -0.2193
    940  C5         1.7590   11.3560   -6.5640 C.ar   47  DA47        0.1518
    941  C6         0.5570   12.0810   -6.6410 C.ar   47  DA47        0.1919
    942  N6        -0.6500   11.5110   -6.6650 N.pl3  47  DA47       -0.1054
    943  N1         0.6400   13.4270   -6.6930 N.ar   47  DA47       -0.2040
    944  C2         1.8500   13.9980   -6.6700 C.ar   47  DA47        0.2016
    945  N3         3.0490   13.4240   -6.6000 N.ar   47  DA47       -0.2048
    946  C4         2.9320   12.0860   -6.5480 C.ar   47  DA47        0.1691
    947  P          6.6550    9.9990   -1.8490 P.3    48  DA48        0.2141
    948  OP1        7.8320    9.1200   -1.6270 O.3    48  DA48       -0.4373
    949  OP2        5.2880    9.4040   -1.8970 O.2    48  DA48       -0.5172
    950  O5'        6.6570   11.0970   -0.6990 O.3    48  DA48       -0.3114
    951  C5'        7.2220   12.3900   -0.9160 C.3    48  DA48        0.1811
    952  C4'        6.1890   13.4600   -0.6610 C.3    48  DA48        0.1746
    953  O4'        5.3250   13.6450   -1.8090 O.3    48  DA48       -0.3327
    954  C3'        5.2360   13.1740    0.4840 C.3    48  DA48        0.1558
    955  O3'        5.8390   13.4860    1.7330 O.3    48  DA48       -0.3138
    956  C2'        4.0310   14.0560    0.1660 C.3    48  DA48        0.0865
    957  C1'        4.0800   14.1390   -1.3630 C.3    48  DA48        0.2094
    958  N9         3.1620   13.5170   -1.9340 N.ar   48  DA48       -0.2714
    959  C8         3.3670   12.2200   -2.3270 C.ar   48  DA48        0.1815
    960  N7         2.2890   11.6300   -2.7840 N.ar   48  DA48       -0.2193
    961  C5         1.3090   12.6040   -2.6840 C.ar   48  DA48        0.1518
    962  C6        -0.0590   12.6070   -3.0080 C.ar   48  DA48        0.1919
    963  N6        -0.6990   11.5540   -3.5220 N.pl3  48  DA48       -0.1054
    964  N1        -0.7540   13.7420   -2.7840 N.ar   48  DA48       -0.2040
    965  C2        -0.1110   14.7980   -2.2710 C.ar   48  DA48        0.2016
    966  N3         1.1690   14.9170   -1.9270 N.ar   48  DA48       -0.2048
    967  C4         1.8310   13.7720   -2.1610 C.ar   48  DA48        0.1691
    968  P          4.8880   13.3710    3.1320 P.3    49  DT49        0.2141
    969  OP1        5.6080   13.6640    4.3960 O.3    49  DT49       -0.4373
    970  OP2        4.4460   11.9910    2.8260 O.2    49  DT49       -0.5172
    971  O5'        3.5470   14.2480    3.0680 O.3    49  DT49       -0.3114
    972  C5'        3.5330   15.5470    3.6470 C.3    49  DT49        0.1811
    973  C4'        2.3390   16.3760    3.2260 C.3    49  DT49        0.1746
    974  O4'        2.0000   16.1110    1.8380 O.3    49  DT49       -0.3327
    975  C3'        1.0220   16.1230    3.9440 C.3    49  DT49        0.1558
    976  O3'        0.9510   16.6510    5.2590 O.3    49  DT49       -0.3138
    977  C2'        0.0330   16.7530    2.9740 C.3    49  DT49        0.0866
    978  C1'        0.6110   16.2710    1.6450 C.3    49  DT49        0.2106
    979  N1         0.0030   14.8520    1.3240 N.ar   49  DT49       -0.2559
    980  C2        -1.3220   14.7000    0.9620 C.ar   49  DT49        0.3545
    981  O2        -2.1560   15.5760    1.1090 O.2    49  DT49       -0.2443
    982  N3        -1.6390   13.4780    0.4190 N.ar   49  DT49       -0.1533
    983  C4        -0.7840   12.4170    0.2070 C.ar   49  DT49        0.2804
    984  O4        -1.2170   11.3810   -0.2920 O.2    49  DT49       -0.2654
    985  C5         0.5740   12.6520    0.6100 C.ar   49  DT49        0.0534
    986  C6         0.9100   13.8310    1.1400 C.ar   49  DT49        0.0824
    987  C7         1.5810   11.5570    0.4210 C.3    49  DT49        0.0377
    988  P          0.9750   15.6860    6.2100 P.3    50  DT50        0.2141
    989  OP1        1.9870   16.0420    7.2280 O.3    50  DT50       -0.4373
    990  OP2        1.0220   14.3430    5.5860 O.2    50  DT50       -0.5172
    991  O5'       -0.4800   15.8660    6.8630 O.3    50  DT50       -0.3114
    992  C5'       -1.5550   16.5000    6.1590 C.3    50  DT50        0.1811
    993  C4'       -2.8880   15.7860    6.3160 C.3    50  DT50        0.1746
    994  O4'       -3.3270   15.3440    5.0050 O.3    50  DT50       -0.3327
    995  C3'       -2.9040   14.5060    7.1410 C.3    50  DT50        0.1558
    996  O3'       -2.9330   14.7850    8.5400 O.3    50  DT50       -0.3138
    997  C2'       -4.1830   13.8430    6.6260 C.3    50  DT50        0.0866
    998  C1'       -4.0590   14.1340    5.1330 C.3    50  DT50        0.2106
    999  N1        -3.4250   13.0570    4.3290 N.ar   50  DT50       -0.2559
   1000  C2        -4.2620   11.9970    4.0330 C.ar   50  DT50        0.3545
   1001  O2        -5.4650   12.0270    4.2230 O.2    50  DT50       -0.2443
   1002  N3        -3.6370   10.8940    3.5030 N.ar   50  DT50       -0.1533
   1003  C4        -2.2900   10.7470    3.2470 C.ar   50  DT50        0.2804
   1004  O4        -1.8760    9.6940    2.7670 O.2    50  DT50       -0.2654
   1005  C5        -1.4880   11.8900    3.5820 C.ar   50  DT50        0.0534
   1006  C6        -2.0690   12.9760    4.0980 C.ar   50  DT50        0.0824
   1007  C7        -0.0090   11.8280    3.3400 C.3    50  DT50        0.0377
   1008  P         -2.2200   13.6930    9.7360 P.3    51  DA51        0.2141
   1009  OP1       -1.9030   14.2250   11.0900 O.3    51  DA51       -0.4373
   1010  OP2       -1.2940   12.7130    9.1040 O.2    51  DA51       -0.5172
   1011  O5'       -3.6780   13.0340    9.7230 O.3    51  DA51       -0.3114
   1012  C5'       -4.8380   13.8580    9.7630 C.3    51  DA51        0.1811
   1013  C4'       -6.0480   13.1340    9.2080 C.3    51  DA51        0.1746
   1014  O4'       -5.8610   12.7980    7.8080 O.3    51  DA51       -0.3327
   1015  C3'       -6.4470   11.8240    9.8590 C.3    51  DA51        0.1558
   1016  O3'       -7.1970   12.0570   11.0420 O.3    51  DA51       -0.3138
   1017  C2'       -7.2800   11.1470    8.7730 C.3    51  DA51        0.0865
   1018  C1'       -6.5800   11.6160    7.4990 C.3    51  DA51        0.2094
   1019  N9        -5.8900   10.6370    6.9970 N.ar   51  DA51       -0.2714
   1020  C8        -4.5330   10.5990    7.1840 C.ar   51  DA51        0.1815
   1021  N7        -3.9420    9.6030    6.5680 N.ar   51  DA51       -0.2193
   1022  C5        -4.9810    8.9410    5.9340 C.ar   51  DA51        0.1518
   1023  C6        -5.0160    7.7990    5.1140 C.ar   51  DA51        0.1919
   1024  N6        -3.9310    7.0950    4.7820 N.pl3  51  DA51       -0.1054
   1025  N1        -6.2170    7.4020    4.6440 N.ar   51  DA51       -0.2040
   1026  C2        -7.3030    8.1090    4.9770 C.ar   51  DA51        0.2016
   1027  N3        -7.3970    9.1970    5.7360 N.ar   51  DA51       -0.2048
   1028  C4        -6.1870    9.5660    6.1890 C.ar   51  DA51        0.1691
   1029  P         -7.3820   10.9300   11.9900 P.3    52  DC52        0.2141
   1030  OP1       -8.0100   11.3890   13.2490 O.3    52  DC52       -0.4373
   1031  OP2       -5.9900   10.4270   11.9920 O.2    52  DC52       -0.5172
   1032  O5'       -8.2350    9.7230   11.3800 O.3    52  DC52       -0.3114
   1033  C5'       -9.5340    9.9460   10.8470 C.3    52  DC52        0.1811
   1034  C4'      -10.0090    8.7560   10.0520 C.3    52  DC52        0.1746
   1035  O4'       -9.1420    8.5570    8.9030 O.3    52  DC52       -0.3327
   1036  C3'       -9.9600    7.4200   10.7750 C.3    52  DC52        0.1558
   1037  O3'      -11.0530    7.2130   11.6530 O.3    52  DC52       -0.3138
   1038  C2'       -9.8910    6.4250    9.6230 C.3    52  DC52        0.0866
   1039  C1'       -8.9780    7.1750    8.6510 C.3    52  DC52        0.2106
   1040  N1        -7.3980    6.8120    8.9510 N.ar   52  DC52       -0.2556
   1041  C2        -6.9710    5.5020    8.7060 C.ar   52  DC52        0.3531
   1042  O2        -7.8170    4.6450    8.3980 O.2    52  DC52       -0.2443
   1043  N3        -5.6530    5.2070    8.8120 N.ar   52  DC52       -0.1739
   1044  C4        -4.7820    6.1590    9.1460 C.ar   52  DC52        0.1759
   1045  N4        -3.4930    5.8220    9.2380 N.pl3  52  DC52       -0.1070
   1046  C5        -5.1940    7.4930    9.3980 C.ar   52  DC52        0.0566
   1047  C6        -6.4960    7.7790    9.2930 C.ar   52  DC52        0.0849
   1048  P        -10.7680    6.6510   13.1200 P.3    53  DG53        0.2141
   1049  OP1      -12.1350    6.6230   13.6460 O.2    53  DG53       -0.5172
   1050  OP2       -9.7090    7.4570   13.7750 O.3    53  DG53       -0.4373
   1051  O5'      -10.1340    5.1780   13.0600 O.3    53  DG53       -0.3114
   1052  C5'      -10.7290    4.0560   12.4090 C.3    53  DG53        0.1811
   1053  C4'       -9.6640    2.9970   12.1770 C.3    53  DG53        0.1746
   1054  O4'       -8.7050    3.4010   11.1560 O.3    53  DG53       -0.3327
   1055  C3'       -8.7650    2.7210   13.3650 C.3    53  DG53        0.1558
   1056  O3'       -9.4770    1.9030   14.2520 O.3    53  DG53       -0.3138
   1057  C2'       -7.5910    2.0260   12.6810 C.3    53  DG53        0.0865
   1058  C1'       -7.4250    2.9000   11.4620 C.3    53  DG53        0.2094
   1059  N9        -6.5190    4.0200   11.7640 N.ar   53  DG53       -0.2713
   1060  C8        -6.8390    5.3550   11.8300 C.ar   53  DG53        0.1816
   1061  N7        -5.8130    6.1180   12.0930 N.ar   53  DG53       -0.2173
   1062  C5        -4.7520    5.2390   12.2060 C.ar   53  DG53        0.1748
   1063  C6        -3.3820    5.4780   12.4850 C.ar   53  DG53        0.3023
   1064  O6        -2.8190    6.5600   12.6930 O.2    53  DG53       -0.2633
   1065  N1        -2.6430    4.2980   12.5110 N.ar   53  DG53       -0.1709
   1066  C2        -3.1600    3.0440   12.2940 C.ar   53  DG53        0.2606
   1067  N2        -2.2900    2.0260   12.3590 N.pl3  53  DG53       -0.0859
   1068  N3        -4.4310    2.8060   12.0350 N.ar   53  DG53       -0.1918
   1069  C4        -5.1680    3.9370   12.0060 C.ar   53  DG53        0.1722
   1070  P         -9.2370    2.0030   15.6320 P.3    54  DT54        0.2141
   1071  OP1      -10.2780    0.9670   15.7600 O.2    54  DT54       -0.5172
   1072  OP2       -9.4350    3.3170   16.2770 O.3    54  DT54       -0.4373
   1073  O5'       -7.8650    1.3930   16.1480 O.3    54  DT54       -0.3115
   1074  C5'       -7.5290    0.0250   15.8990 C.3    54  DT54        0.1785
   1075  C4'       -6.0690   -0.2090   16.1990 C.3    54  DT54        0.1473
   1076  O4'       -5.2690    0.6350   15.3230 O.3    54  DT54       -0.3353
   1077  C3'       -5.5880    0.1720   17.5920 C.3    54  DT54        0.0368
   1078  O3'       -5.8990   -0.8050   18.5890 O.3    54  DT54       -0.1229
   1079  C2'       -4.0910    0.3250   17.3530 C.3    54  DT54        0.0566
   1080  C1'       -4.0800    1.0300   15.9940 C.3    54  DT54        0.2081
   1081  N1        -4.0680    2.5730   16.2100 N.ar   54  DT54       -0.2559
   1082  C2        -2.8350    3.1930   16.2740 C.ar   54  DT54        0.3545
   1083  O2        -1.7840    2.5790   16.3240 O.2    54  DT54       -0.2443
   1084  N3        -2.8750    4.5670   16.2790 N.ar   54  DT54       -0.1533
   1085  C4        -3.9990    5.3640   16.2270 C.ar   54  DT54        0.2804
   1086  O4        -3.8750    6.5860   16.2380 O.2    54  DT54       -0.2654
   1087  C5        -5.2410    4.6460   16.1630 C.ar   54  DT54        0.0534
   1088  C6        -5.2310    3.3100   16.1570 C.ar   54  DT54        0.0824
   1089  C7        -6.5220    5.4250   16.1040 C.3    54  DT54        0.0377
   1090  P         -5.9560   -0.3640   19.8930 P.3    55  DC55        0.4174
   1091  OP1       -4.9620    0.3880   20.6890 O.2    55  DC55       -0.2667
   1092  OP2       -5.5450   -1.5710   19.1400 O.3    55  DC55       -0.0277
   1093  O5'       -7.1480   -0.8650   20.8320 O.3    55  DC55       -0.2176
   1094  C5'       -7.8240    0.0220   21.7060 C.3    55  DC55        0.2140
   1095  C4'       -8.7530   -0.7660   22.5860 C.3    55  DC55        0.1776
   1096  O4'       -9.6500   -1.5370   21.7440 O.3    55  DC55       -0.3326
   1097  C3'       -8.0960   -1.8220   23.4650 C.3    55  DC55        0.1559
   1098  O3'       -7.5660   -1.3140   24.6760 O.3    55  DC55       -0.3138
   1099  C2'       -9.2270   -2.8090   23.7020 C.3    55  DC55        0.0866
   1100  C1'       -9.9530   -2.7680   22.3590 C.3    55  DC55        0.2106
   1101  N1        -9.5180   -3.8920   21.5200 N.ar   55  DC55       -0.2556
   1102  C2       -10.0120   -5.1620   21.8380 C.ar   55  DC55        0.3531
   1103  O2       -10.8300   -5.2690   22.7680 O.2    55  DC55       -0.2443
   1104  N3        -9.5860   -6.2330   21.1270 N.ar   55  DC55       -0.1739
   1105  C4        -8.7060   -6.0700   20.1380 C.ar   55  DC55        0.1759
   1106  N4        -8.3150   -7.1550   19.4660 N.pl3  55  DC55       -0.1070
   1107  C5        -8.1930   -4.7920   19.8000 C.ar   55  DC55        0.0566
   1108  C6        -8.6170   -3.7370   20.5040 C.ar   55  DC55        0.0849
   1109  P         -6.2120   -2.0950   25.4900 P.3    56  DT56        0.2141
   1110  OP1       -5.8970   -1.2840   26.6950 O.3    56  DT56       -0.4373
   1111  OP2       -5.1080   -2.7470   24.7370 O.2    56  DT56       -0.5172
   1112  O5'       -7.2010   -3.2450   25.9570 O.3    56  DT56       -0.3114
   1113  C5'       -8.4230   -2.9270   26.6260 C.3    56  DT56        0.1811
   1114  C4'       -9.1150   -4.1920   27.0410 C.3    56  DT56        0.1746
   1115  O4'       -9.4710   -4.9660   25.8650 O.3    56  DT56       -0.3327
   1116  C3'       -8.2360   -5.1260   27.8460 C.3    56  DT56        0.1558
   1117  O3'       -8.1970   -4.7610   29.2090 O.3    56  DT56       -0.3138
   1118  C2'       -8.8740   -6.4850   27.5940 C.3    56  DT56        0.0866
   1119  C1'       -9.3050   -6.3480   26.1340 C.3    56  DT56        0.2106
   1120  N1        -8.2990   -6.9020   25.1780 N.ar   56  DT56       -0.2559
   1121  C2        -8.3570   -8.2680   24.9750 C.ar   56  DT56        0.3545
   1122  O2        -9.1810   -8.9850   25.5130 O.2    56  DT56       -0.2443
   1123  N3        -7.4080   -8.7680   24.1160 N.ar   56  DT56       -0.1533
   1124  C4        -6.4310   -8.0550   23.4540 C.ar   56  DT56        0.2805
   1125  O4        -5.6490   -8.6450   22.7120 O.3    56  DT56       -0.2639
   1126  C5        -6.4360   -6.6430   23.7170 C.ar   56  DT56        0.0533
   1127  C6        -7.3470   -6.1310   24.5490 C.ar   56  DT56        0.0824
   1128  C7        -5.4100   -5.7800   23.0440 C.3    56  DT56        0.0398
   1129  P         -6.8210   -4.9050   30.0690 P.3    57  DG57        0.2141
   1130  OP1       -7.0910   -4.3440   31.4110 O.3    57  DG57       -0.4373
   1131  OP2       -5.4200   -4.9460   29.5640 O.2    57  DG57       -0.5172
   1132  O5'       -7.4020   -6.3760   29.9690 O.3    57  DG57       -0.3114
   1133  C5'       -8.2740   -6.8710   30.9270 C.3    57  DG57        0.1811
   1134  C4'       -8.3010   -8.3740   30.8400 C.3    57  DG57        0.1746
   1135  O4'       -8.4630   -8.7740   29.4490 O.3    57  DG57       -0.3327
   1136  C3'       -7.0250   -9.0770   31.2910 C.3    57  DG57        0.1558
   1137  O3'       -6.9290   -9.1480   32.6910 O.3    57  DG57       -0.3138
   1138  C2'       -7.2340  -10.4260   30.6210 C.3    57  DG57        0.0865
   1139  C1'       -7.7760   -9.9990   29.2450 C.3    57  DG57        0.2094
   1140  N9        -6.6810   -9.8650   28.1990 N.ar   57  DG57       -0.2713
   1141  C8        -6.0360   -8.7470   27.7290 C.ar   57  DG57        0.1816
   1142  N7        -5.0900   -9.0200   26.8720 N.ar   57  DG57       -0.2173
   1143  C5        -5.1100  -10.3990   26.7670 C.ar   57  DG57        0.1748
   1144  C6        -4.3120  -11.2770   25.9890 C.ar   57  DG57        0.3023
   1145  O6        -3.3940  -10.9900   25.2100 O.2    57  DG57       -0.2633
   1146  N1        -4.6650  -12.6090   26.1820 N.ar   57  DG57       -0.1709
   1147  C2        -5.6640  -13.0430   27.0200 C.ar   57  DG57        0.2606
   1148  N2        -5.8590  -14.3670   27.0730 N.pl3  57  DG57       -0.0859
   1149  N3        -6.4130  -12.2390   27.7490 N.ar   57  DG57       -0.1918
   1150  C4        -6.0870  -10.9400   27.5790 C.ar   57  DG57        0.1722
   1151  P         -5.4920   -9.3910   33.3970 P.3    58  DC58        0.2141
   1152  OP1       -5.9110   -8.9740   34.7540 O.3    58  DC58       -0.4373
   1153  OP2       -4.3300   -8.7500   32.7410 O.2    58  DC58       -0.5172
   1154  O5'       -5.1320  -10.9490   33.4010 O.3    58  DC58       -0.3114
   1155  C5'       -6.2070  -11.8800   33.3910 C.3    58  DC58        0.1811
   1156  C4'       -5.7540  -13.2520   32.9630 C.3    58  DC58        0.1746
   1157  O4'       -5.7110  -13.3350   31.5190 O.3    58  DC58       -0.3327
   1158  C3'       -4.3620  -13.6420   33.4230 C.3    58  DC58        0.1558
   1159  O3'       -4.3910  -14.1480   34.7460 O.3    58  DC58       -0.3138
   1160  C2'       -3.9000  -14.6340   32.3580 C.3    58  DC58        0.0866
   1161  C1'       -4.6100  -14.1130   31.1080 C.3    58  DC58        0.2106
   1162  N1        -3.8120  -13.3840   30.2050 N.ar   58  DC58       -0.2556
   1163  C2        -2.9780  -14.0960   29.3350 C.ar   58  DC58        0.3531
   1164  O2        -3.1130  -15.3280   29.2520 O.2    58  DC58       -0.2443
   1165  N3        -2.0510  -13.4230   28.6120 N.ar   58  DC58       -0.1739
   1166  C4        -1.9410  -12.0990   28.7330 C.ar   58  DC58        0.1759
   1167  N4        -1.0140  -11.4790   28.0010 N.pl3  58  DC58       -0.1070
   1168  C5        -2.7770  -11.3600   29.6090 C.ar   58  DC58        0.0566
   1169  C6        -3.6910  -12.0280   30.3220 C.ar   58  DC58        0.0849
   1170  P         -3.0370  -14.6800   35.5460 P.3    59  DA59        0.2141
   1171  OP1       -3.5220  -15.1810   36.8510 O.3    59  DA59       -0.4373
   1172  OP2       -2.2670  -13.4180   35.4850 O.2    59  DA59       -0.5172
   1173  O5'       -2.1910  -15.8430   34.8570 O.3    59  DA59       -0.3114
   1174  C5'       -2.7430  -17.1690   34.6900 C.3    59  DA59        0.1811
   1175  C4'       -1.9200  -17.9670   33.6970 C.3    59  DA59        0.1746
   1176  O4'       -1.9810  -17.3320   32.3940 O.3    59  DA59       -0.3327
   1177  C3'       -0.4350  -18.0940   34.0040 C.3    59  DA59        0.1558
   1178  O3'       -0.2150  -19.1870   34.9010 O.3    59  DA59       -0.3138
   1179  C2'        0.1700  -18.3290   32.6180 C.3    59  DA59        0.0865
   1180  C1'       -0.7350  -17.4660   31.7330 C.3    59  DA59        0.2094
   1181  N9        -0.2330  -16.1690   31.4120 N.ar   59  DA59       -0.2714
   1182  C8        -0.6260  -14.9800   31.9690 C.ar   59  DA59        0.1815
   1183  N7         0.0250  -13.9390   31.5070 N.ar   59  DA59       -0.2193
   1184  C5         0.9070  -14.4810   30.5860 C.ar   59  DA59        0.1518
   1185  C6         1.8770  -13.9000   29.7500 C.ar   59  DA59        0.1919
   1186  N6         2.1280  -12.5900   29.7090 N.pl3  59  DA59       -0.1054
   1187  N1         2.5880  -14.7230   28.9500 N.ar   59  DA59       -0.2040
   1188  C2         2.3350  -16.0360   28.9910 C.ar   59  DA59        0.2016
   1189  N3         1.4490  -16.6980   29.7320 N.ar   59  DA59       -0.2048
   1190  C4         0.7600  -15.8530   30.5170 C.ar   59  DA59        0.1691
   1191  P          1.0100  -19.0590   36.3330 P.3    60  DC60        0.2141
   1192  OP1        1.2200  -20.3000   37.1310 O.3    60  DC60       -0.4373
   1193  OP2        1.4140  -17.7370   36.9010 O.2    60  DC60       -0.5172
   1194  O5'        1.7230  -19.2680   34.9210 O.3    60  DC60       -0.3114
   1195  C5'        1.3670  -20.3690   34.0860 C.3    60  DC60        0.1811
   1196  C4'        2.3150  -20.4810   32.9060 C.3    60  DC60        0.1746
   1197  O4'        2.1350  -19.3570   31.9960 O.3    60  DC60       -0.3327
   1198  C3'        3.7960  -20.4130   33.2330 C.3    60  DC60        0.1558
   1199  O3'        4.2930  -21.6350   33.7590 O.3    60  DC60       -0.3138
   1200  C2'        4.3990  -20.0670   31.8750 C.3    60  DC60        0.0866
   1201  C1'        3.3660  -19.0760   31.3330 C.3    60  DC60        0.2106
   1202  N1         3.8210  -17.6640   31.5580 N.ar   60  DC60       -0.2556
   1203  C2         4.7560  -17.1200   30.6700 C.ar   60  DC60        0.3531
   1204  O2         5.1810  -17.8290   29.7420 O.2    60  DC60       -0.2443
   1205  N3         5.1690  -15.8420   30.8470 N.ar   60  DC60       -0.1739
   1206  C4         4.6860  -15.1190   31.8580 C.ar   60  DC60        0.1759
   1207  N4         5.1220  -13.8640   31.9920 N.pl3  60  DC60       -0.1070
   1208  C5         3.7380  -15.6510   32.7690 C.ar   60  DC60        0.0566
   1209  C6         3.3330  -16.9140   32.5910 C.ar   60  DC60        0.0849
   1210  P          5.4760  -21.5710   34.2940 P.3    61  DA61        0.2141
   1211  OP1        5.7650  -23.0180   34.4130 O.2    61  DA61       -0.5172
   1212  OP2        6.2570  -20.5800   35.0690 O.3    61  DA61       -0.4373
   1213  O5'        5.6640  -21.1160   32.7740 O.3    61  DA61       -0.3114
   1214  C5'        6.0900  -22.0200   31.7720 C.3    61  DA61        0.1812
   1215  C4'        7.3590  -21.5180   31.1340 C.3    61  DA61        0.1772
   1216  O4'        7.1230  -20.2180   30.5330 O.3    61  DA61       -0.3348
   1217  C3'        8.5120  -21.2660   32.0890 C.3    61  DA61        0.1857
   1218  O3'        9.2040  -22.4490   32.4420 O.3    61  DA61       -0.2203
   1219  C2'        9.3560  -20.2820   31.2970 C.3    61  DA61        0.0864
   1220  C1'        8.2750  -19.4140   30.6560 C.3    61  DA61        0.1975
   1221  N9         8.0330  -18.2790   31.3580 N.pl3  61  DA61       -0.2458
   1222  C8         7.1090  -18.1280   32.3590 C.2    61  DA61        0.1669
   1223  N7         7.2010  -16.9850   32.9970 N.2    61  DA61       -0.2209
   1224  C5         8.2580  -16.3420   32.3720 C.2    61  DA61        0.1887
   1225  C6         8.8590  -15.0880   32.5820 C.2    61  DA61        0.4109
   1226  N6         8.4610  -14.2250   33.5200 N.pl3  61  DA61        0.2140
   1227  N1         9.8950  -14.7490   31.7860 N.pl3  61  DA61       -0.0284
   1228  C2        10.2930  -15.6140   30.8460 C.2    61  DA61        0.3061
   1229  N3         9.8080  -16.8190   30.5530 N.2    61  DA61       -0.2039
   1230  C4         8.7810  -17.1270   31.3620 C.3    61  DA61        0.2331
   1231  P         10.2130  -22.7010   34.4900 P.3    62  DT62        0.5411
   1232  OP1       10.6310  -24.0450   35.0160 O.2    62  DT62       -0.2272
   1233  OP2        9.3340  -21.8190   35.2970 O.2    62  DT62       -0.2272
   1234  O5'       11.5020  -21.8930   34.0170 O.3    62  DT62       -0.2722
   1235  C5'       12.4090  -22.5030   33.1150 C.3    62  DT62        0.1850
   1236  C4'       13.2030  -21.4690   32.3830 C.3    62  DT62        0.1748
   1237  O4'       12.3100  -20.5030   31.7890 O.3    62  DT62       -0.3327
   1238  C3'       14.1520  -20.6480   33.2210 C.3    62  DT62        0.1558
   1239  O3'       15.3650  -21.3700   33.3200 O.3    62  DT62       -0.3138
   1240  C2'       14.3280  -19.4050   32.3630 C.3    62  DT62        0.0866
   1241  C1'       12.9410  -19.2400   31.7400 C.3    62  DT62        0.2106
   1242  N1        12.0760  -18.2850   32.5730 N.ar   62  DT62       -0.2559
   1243  C2        12.2590  -16.9340   32.3450 C.ar   62  DT62        0.3545
   1244  O2        13.0300  -16.5010   31.5070 O.2    62  DT62       -0.2443
   1245  N3        11.5040  -16.1030   33.1370 N.ar   62  DT62       -0.1533
   1246  C4        10.6050  -16.4790   34.1130 C.ar   62  DT62        0.2804
   1247  O4         9.9990  -15.6150   34.7420 O.2    62  DT62       -0.2654
   1248  C5        10.4720  -17.8980   34.2910 C.ar   62  DT62        0.0534
   1249  C6        11.1940  -18.7280   33.5340 C.ar   62  DT62        0.0824
   1250  C7         9.5180  -18.4080   35.3300 C.3    62  DT62        0.0377
   1251  P         16.6640  -20.6400   34.3430 P.3    63  DA63        0.2141
   1252  OP1       17.7810  -21.4500   34.8810 O.2    63  DA63       -0.5172
   1253  OP2       15.8410  -19.8350   35.2710 O.3    63  DA63       -0.4373
   1254  O5'       17.2780  -19.5970   33.3080 O.3    63  DA63       -0.3114
   1255  C5'       16.6340  -18.3510   33.0680 C.3    63  DA63        0.1811
   1256  C4'       17.4760  -17.4910   32.1530 C.3    63  DA63        0.1746
   1257  O4'       18.7090  -17.1090   32.8280 O.3    63  DA63       -0.3327
   1258  C3'       17.9410  -18.1550   30.8690 C.3    63  DA63        0.1558
   1259  O3'       16.9240  -18.1320   29.8720 O.3    63  DA63       -0.3138
   1260  C2'       19.1660  -17.3160   30.5220 C.3    63  DA63        0.0865
   1261  C1'       19.7900  -17.1470   31.9060 C.3    63  DA63        0.2094
   1262  N9        20.6100  -18.1670   32.3420 N.ar   63  DA63       -0.2714
   1263  C8        20.3150  -19.3440   32.9790 C.ar   63  DA63        0.1815
   1264  N7        21.2980  -20.2120   32.9690 N.ar   63  DA63       -0.2193
   1265  C5        22.3080  -19.5620   32.2770 C.ar   63  DA63        0.1518
   1266  C6        23.6130  -19.9470   31.9250 C.ar   63  DA63        0.1919
   1267  N6        24.1450  -21.1310   32.2380 N.pl3  63  DA63       -0.1054
   1268  N1        24.3620  -19.0620   31.2330 N.ar   63  DA63       -0.2040
   1269  C2        23.8290  -17.8750   30.9210 C.ar   63  DA63        0.2016
   1270  N3        22.6170  -17.3990   31.1960 N.ar   63  DA63       -0.2048
   1271  C4        21.8980  -18.3020   31.8840 C.ar   63  DA63        0.1691
   1272  P         17.0220  -19.0910   28.6780 P.3    64  DC64        0.2141
   1273  OP1       15.5810  -18.8620   28.4000 O.2    64  DC64       -0.5172
   1274  OP2       17.4580  -20.3960   29.2340 O.3    64  DC64       -0.4373
   1275  O5'       17.8490  -18.8220   27.3440 O.3    64  DC64       -0.3114
   1276  C5'       17.6210  -17.6330   26.5940 C.3    64  DC64        0.1811
   1277  C4'       18.9260  -16.9630   26.2370 C.3    64  DC64        0.1746
   1278  O4'       19.8440  -17.0650   27.3530 O.3    64  DC64       -0.3327
   1279  C3'       19.7130  -17.5080   25.0520 C.3    64  DC64        0.1558
   1280  O3'       19.2200  -16.9760   23.8240 O.3    64  DC64       -0.3138
   1281  C2'       21.1180  -16.9970   25.3460 C.3    64  DC64        0.0866
   1282  C1'       21.1760  -17.1130   26.8690 C.3    64  DC64        0.2106
   1283  N1        21.8460  -18.4390   26.9430 N.ar   64  DC64       -0.2556
   1284  C2        23.1990  -18.6730   26.6720 C.ar   64  DC64        0.3531
   1285  O2        23.8380  -17.8170   26.0360 O.2    64  DC64       -0.2443
   1286  N3        23.7700  -19.8210   27.1070 N.ar   64  DC64       -0.1739
   1287  C4        23.0450  -20.7120   27.7840 C.ar   64  DC64        0.1759
   1288  N4        23.6510  -21.8290   28.1930 N.pl3  64  DC64       -0.1070
   1289  C5        21.6730  -20.4940   28.0690 C.ar   64  DC64        0.0566
   1290  C6        21.1130  -19.3590   27.6380 C.ar   64  DC64        0.0849
   1291  P         18.7640  -17.9710   22.8340 P.3    65  DC65        0.2141
   1292  OP1       17.7630  -17.4860   21.8620 O.2    65  DC65       -0.5172
   1293  OP2       18.6280  -19.3100   23.4520 O.3    65  DC65       -0.4373
   1294  O5'       20.2160  -18.0040   22.1670 O.3    65  DC65       -0.3114
   1295  C5'       20.8070  -16.7850   21.7410 C.3    65  DC65        0.1811
   1296  C4'       22.2740  -16.9310   21.4020 C.3    65  DC65        0.1746
   1297  O4'       23.0250  -17.4270   22.5410 O.3    65  DC65       -0.3327
   1298  C3'       22.6110  -17.8910   20.2740 C.3    65  DC65        0.1558
   1299  O3'       22.4500  -17.2710   19.0110 O.3    65  DC65       -0.3138
   1300  C2'       24.0560  -18.2700   20.5650 C.3    65  DC65        0.0866
   1301  C1'       24.1280  -18.1840   22.0920 C.3    65  DC65        0.2106
   1302  N1        23.8500  -19.4090   23.0390 N.ar   65  DC65       -0.2556
   1303  C2        24.9700  -20.2370   23.1810 C.ar   65  DC65        0.3531
   1304  O2        26.0690  -19.8330   22.7630 O.2    65  DC65       -0.2443
   1305  N3        24.8240  -21.4490   23.7660 N.ar   65  DC65       -0.1739
   1306  C4        23.6250  -21.8420   24.1980 C.ar   65  DC65        0.1759
   1307  N4        23.5290  -23.0450   24.7690 N.pl3  65  DC65       -0.1070
   1308  C5        22.4780  -21.0180   24.0640 C.ar   65  DC65        0.0566
   1309  C6        22.6260  -19.8210   23.4850 C.ar   65  DC65        0.0849
   1310  P         21.8100  -17.9770   17.8480 P.3    66  DA66        0.2141
   1311  OP1       22.6380  -19.0030   17.1660 O.2    66  DA66       -0.5172
   1312  OP2       21.7640  -16.5920   17.3040 O.3    66  DA66       -0.4373
   1313  O5'       20.3140  -18.5130   17.9350 O.3    66  DA66       -0.3114
   1314  C5'       19.9620  -19.5680   18.8260 C.3    66  DA66        0.1811
   1315  C4'       18.7100  -20.2460   18.3410 C.3    66  DA66        0.1746
   1316  O4'       17.6780  -19.2430   18.2030 O.3    66  DA66       -0.3327
   1317  C3'       18.8370  -20.8880   16.9680 C.3    66  DA66        0.1558
   1318  O3'       19.2120  -22.2500   17.1470 O.3    66  DA66       -0.3138
   1319  C2'       17.4270  -20.7940   16.4010 C.3    66  DA66        0.0865
   1320  C1'       16.8930  -19.5190   17.0610 C.3    66  DA66        0.2094
   1321  N9        16.8480  -18.5140   16.1880 N.ar   66  DA66       -0.2714
   1322  C8        17.9340  -17.7970   15.7580 C.ar   66  DA66        0.1815
   1323  N7        17.6950  -17.0600   14.6990 N.ar   66  DA66       -0.2193
   1324  C5        16.3620  -17.3100   14.4140 C.ar   66  DA66        0.1518
   1325  C6        15.5040  -16.8320   13.4080 C.ar   66  DA66        0.1919
   1326  N6        15.8810  -15.9640   12.4660 N.pl3  66  DA66       -0.1054
   1327  N1        14.2310  -17.2810   13.4050 N.ar   66  DA66       -0.2040
   1328  C2        13.8540  -18.1500   14.3500 C.ar   66  DA66        0.2016
   1329  N3        14.5670  -18.6700   15.3460 N.ar   66  DA66       -0.2048
   1330  C4        15.8270  -18.2050   15.3210 C.ar   66  DA66        0.1691
   1331  P         19.8250  -23.1350   15.8250 P.3    67  DG67        0.2141
   1332  OP1       20.0730  -24.5790   16.0530 O.3    67  DG67       -0.4373
   1333  OP2       20.4640  -22.4700   14.6730 O.2    67  DG67       -0.5172
   1334  O5'       18.2680  -22.9060   15.7310 O.3    67  DG67       -0.3114
   1335  C5'       17.4500  -23.3300   16.7890 C.3    67  DG67        0.1811
   1336  C4'       16.0340  -23.4860   16.3140 C.3    67  DG67        0.1746
   1337  O4'       15.4330  -22.1740   16.1410 O.3    67  DG67       -0.3327
   1338  C3'       15.9130  -24.1910   14.9750 C.3    67  DG67        0.1558
   1339  O3'       15.8600  -25.6170   15.1640 O.3    67  DG67       -0.3138
   1340  C2'       14.6300  -23.5890   14.4190 C.3    67  DG67        0.0865
   1341  C1'       14.6940  -22.1490   14.9380 C.3    67  DG67        0.2093
   1342  N9        15.2750  -21.3140   13.8210 N.ar   67  DG67       -0.2728
   1343  C8        16.5640  -20.9620   13.4990 C.ar   67  DG67        0.1814
   1344  N7        16.6600  -20.3610   12.3440 N.ar   67  DG67       -0.2177
   1345  C5        15.3610  -20.3110   11.8740 C.ar   67  DG67        0.1711
   1346  C6        14.8350  -19.7780   10.6700 C.2    67  DG67        0.2985
   1347  O6        15.4440  -19.2220    9.7470 O.2    67  DG67       -0.2655
   1348  N1        13.4540  -19.9380   10.5880 N.am   67  DG67       -0.1042
   1349  C2        12.6760  -20.5380   11.5500 C.1    67  DG67        0.1459
   1350  N2        11.3620  -20.5980   11.2940 N.2    67  DG67       -0.0041
   1351  N3        13.1510  -21.0380   12.6730 N.pl3  67  DG67       -0.1259
   1352  C4        14.4890  -20.8950   12.7730 C.ar   67  DG67        0.1688
   1353  P         16.1320  -26.7460   13.7880 P.3    68  DC68        0.2141
   1354  OP1       16.4200  -28.0980   14.3110 O.3    68  DC68       -0.4373
   1355  OP2       17.2660  -25.8880   13.3410 O.2    68  DC68       -0.5172
   1356  O5'       15.0910  -26.9240   12.5850 O.3    68  DC68       -0.3114
   1357  C5'       13.8490  -27.6090   12.7840 C.3    68  DC68        0.1811
   1358  C4'       12.7780  -27.1170   11.8220 C.3    68  DC68        0.1746
   1359  O4'       12.6220  -25.6790   11.9640 O.3    68  DC68       -0.3327
   1360  C3'       12.9870  -27.2980   10.3240 C.3    68  DC68        0.1558
   1361  O3'       12.6410  -28.5900    9.8510 O.3    68  DC68       -0.3138
   1362  C2'       12.0570  -26.2520    9.7240 C.3    68  DC68        0.0866
   1363  C1'       12.1420  -25.1260   10.7470 C.3    68  DC68        0.2106
   1364  N1        13.0960  -24.1650   10.2740 N.ar   68  DC68       -0.2556
   1365  C2        12.7980  -23.4080    9.1350 C.ar   68  DC68        0.3531
   1366  O2        11.7040  -23.5820    8.5710 O.2    68  DC68       -0.2443
   1367  N3        13.7060  -22.5120    8.6820 N.ar   68  DC68       -0.1739
   1368  C4        14.8680  -22.3590    9.3190 C.ar   68  DC68        0.1759
   1369  N4        15.7320  -21.4640    8.8360 N.pl3  68  DC68       -0.1070
   1370  C5        15.1900  -23.1160   10.4750 C.ar   68  DC68        0.0566
   1371  C6        14.2890  -24.0000   10.9190 C.ar   68  DC68        0.0849
   1372  P         13.4240  -29.2330    8.6440 P.3    69  DT69        0.2141
   1373  OP1       12.9290  -30.6310    8.5710 O.2    69  DT69       -0.5172
   1374  OP2       14.8850  -28.9720    8.7550 O.3    69  DT69       -0.4373
   1375  O5'       12.8250  -28.4190    7.4200 O.3    69  DT69       -0.3114
   1376  C5'       11.4450  -28.5290    7.1080 C.3    69  DT69        0.1811
   1377  C4'       11.0970  -27.5780    6.0050 C.3    69  DT69        0.1746
   1378  O4'       11.2980  -26.2280    6.4780 O.3    69  DT69       -0.3327
   1379  C3'       11.9370  -27.6950    4.7450 C.3    69  DT69        0.1558
   1380  O3'       11.3610  -28.6870    3.8890 O.3    69  DT69       -0.3138
   1381  C2'       11.8450  -26.2840    4.1740 C.3    69  DT69        0.0866
   1382  C1'       11.8440  -25.4340    5.4470 C.3    69  DT69        0.2106
   1383  N1        13.2140  -24.9690    5.9200 N.ar   69  DT69       -0.2559
   1384  C2        13.7350  -23.8400    5.3160 C.ar   69  DT69        0.3545
   1385  O2        13.1710  -23.2510    4.4110 O.2    69  DT69       -0.2443
   1386  N3        14.9470  -23.4230    5.8110 N.ar   69  DT69       -0.1533
   1387  C4        15.6740  -24.0070    6.8270 C.ar   69  DT69        0.2804
   1388  O4        16.7480  -23.5150    7.1620 O.2    69  DT69       -0.2654
   1389  C5        15.0680  -25.1750    7.4020 C.ar   69  DT69        0.0534
   1390  C6        13.8900  -25.6030    6.9400 C.ar   69  DT69        0.0824
   1391  C7        15.7830  -25.8840    8.5140 C.3    69  DT69        0.0377
   1392  P         12.4080  -29.7920    2.9190 P.3    70  DT70        0.2141
   1393  OP1       11.8010  -30.8040    2.0270 O.2    70  DT70       -0.5172
   1394  OP2       13.6720  -30.1170    3.6170 O.3    70  DT70       -0.4373
   1395  O5'       12.6240  -28.4390    2.0890 O.3    70  DT70       -0.3114
   1396  C5'       11.6130  -27.9820    1.1970 C.3    70  DT70        0.1811
   1397  C4'       11.9640  -26.6510    0.5590 C.3    70  DT70        0.1746
   1398  O4'       12.1930  -25.6230    1.5570 O.3    70  DT70       -0.3327
   1399  C3'       13.2580  -26.6290   -0.2350 C.3    70  DT70        0.1558
   1400  O3'       13.1290  -27.2770   -1.4740 O.3    70  DT70       -0.3138
   1401  C2'       13.4670  -25.1330   -0.3810 C.3    70  DT70        0.0866
   1402  C1'       13.1620  -24.7070    1.0570 C.3    70  DT70        0.2106
   1403  N1        14.4230  -24.6460    1.8180 N.ar   70  DT70       -0.2559
   1404  C2        15.1970  -23.5020    1.7810 C.ar   70  DT70        0.3545
   1405  O2        14.9720  -22.5710    1.0280 O.2    70  DT70       -0.2443
   1406  N3        16.2510  -23.4850    2.6620 N.ar   70  DT70       -0.1533
   1407  C4        16.6010  -24.4760    3.5550 C.ar   70  DT70        0.2804
   1408  O4        17.5770  -24.3160    4.2850 O.2    70  DT70       -0.2654
   1409  C5        15.7500  -25.6320    3.5320 C.ar   70  DT70        0.0534
   1410  C6        14.7180  -25.6740    2.6860 C.ar   70  DT70        0.0824
   1411  C7        16.0490  -26.7660    4.4670 C.3    70  DT70        0.0377
   1412  P         13.9120  -28.1530   -1.5330 P.3    71  DA71        0.2141
   1413  OP1       13.2750  -28.9870   -2.5960 O.2    71  DA71       -0.5172
   1414  OP2       14.4750  -28.8080   -0.3330 O.3    71  DA71       -0.4373
   1415  O5'       15.0790  -27.2860   -2.1900 O.3    71  DA71       -0.3114
   1416  C5'       14.8570  -26.6060   -3.4090 C.3    71  DA71        0.1811
   1417  C4'       15.7100  -25.3670   -3.4950 C.3    71  DA71        0.1746
   1418  O4'       15.7400  -24.6920   -2.2140 O.3    71  DA71       -0.3327
   1419  C3'       17.1800  -25.5520   -3.8070 C.3    71  DA71        0.1558
   1420  O3'       17.4050  -25.7430   -5.1730 O.3    71  DA71       -0.3138
   1421  C2'       17.7800  -24.2340   -3.3440 C.3    71  DA71        0.0865
   1422  C1'       16.9620  -23.9620   -2.0890 C.3    71  DA71        0.2094
   1423  N9        17.7180  -24.4550   -0.9640 N.ar   71  DA71       -0.2714
   1424  C8        17.2390  -25.4200   -0.1160 C.ar   71  DA71        0.1815
   1425  N7        17.9480  -25.5600    0.9800 N.ar   71  DA71       -0.2193
   1426  C5        18.9610  -24.6250    0.8410 C.ar   71  DA71        0.1518
   1427  C6        20.0440  -24.2750    1.6670 C.ar   71  DA71        0.1919
   1428  N6        20.2920  -24.8510    2.8450 N.pl3  71  DA71       -0.1054
   1429  N1        20.8720  -23.3000    1.2340 N.ar   71  DA71       -0.2040
   1430  C2        20.6220  -22.7220    0.0530 C.ar   71  DA71        0.2016
   1431  N3        19.6380  -22.9640   -0.8100 N.ar   71  DA71       -0.2048
   1432  C4        18.8340  -23.9380   -0.3510 C.ar   71  DA71        0.1691
   1433  P         18.4690  -26.8550   -5.6060 P.3    72  DT72        0.2141
   1434  OP1       18.5750  -26.8680   -7.0780 O.2    72  DT72       -0.5172
   1435  OP2       18.7650  -28.0840   -4.8370 O.3    72  DT72       -0.4373
   1436  O5'       19.4180  -25.6950   -5.0730 O.3    72  DT72       -0.3114
   1437  C5'       19.3110  -24.3650   -5.6050 C.3    72  DT72        0.1811
   1438  C4'       20.3930  -23.4740   -5.0430 C.3    72  DT72        0.1746
   1439  O4'       20.2660  -23.3850   -3.5980 O.3    72  DT72       -0.3327
   1440  C3'       21.8260  -23.9190   -5.2660 C.3    72  DT72        0.1558
   1441  O3'       22.3000  -23.5570   -6.5560 O.3    72  DT72       -0.3138
   1442  C2'       22.5700  -23.1880   -4.1550 C.3    72  DT72        0.0866
   1443  C1'       21.5500  -23.2280   -3.0130 C.3    72  DT72        0.2106
   1444  N1        21.7790  -24.1970   -2.0200 N.ar   72  DT72       -0.2559
   1445  C2        22.4600  -23.8080   -0.8820 C.ar   72  DT72        0.3545
   1446  O2        22.9360  -22.6960   -0.7400 O.2    72  DT72       -0.2443
   1447  N3        22.5640  -24.7730    0.0910 N.ar   72  DT72       -0.1533
   1448  C4        22.0680  -26.0590    0.0410 C.ar   72  DT72        0.2804
   1449  O4        22.2410  -26.8120    0.9960 O.2    72  DT72       -0.2654
   1450  C5        21.3750  -26.3870   -1.1730 C.ar   72  DT72        0.0534
   1451  C6        21.2590  -25.4680   -2.1350 C.ar   72  DT72        0.0824
   1452  C7        20.7990  -27.7640   -1.3240 C.3    72  DT72        0.0377
   1453  P         23.5840  -24.3670   -7.1300 P.3    73  DT73        0.2141
   1454  OP1       24.0360  -23.9960   -8.5020 O.2    73  DT73       -0.5172
   1455  OP2       23.9080  -25.6850   -6.5770 O.3    73  DT73       -0.4373
   1456  O5'       24.0210  -23.2420   -6.0870 O.3    73  DT73       -0.3114
   1457  C5'       25.2740  -23.3320   -5.4120 C.3    73  DT73        0.1811
   1458  C4'       25.8930  -21.9570   -5.1660 C.3    73  DT73        0.1746
   1459  O4'       25.6760  -21.0760   -6.2940 O.3    73  DT73       -0.3327
   1460  C3'       25.4950  -21.1370   -3.9460 C.3    73  DT73        0.1558
   1461  O3'       26.2170  -21.6280   -2.8040 O.3    73  DT73       -0.3138
   1462  C2'       25.9620  -19.7310   -4.3420 C.3    73  DT73        0.0866
   1463  C1'       25.8280  -19.7310   -5.8780 C.3    73  DT73        0.2106
   1464  N1        24.1130  -19.2620   -5.9760 N.ar   73  DT73       -0.2559
   1465  C2        23.5900  -18.0210   -5.6660 C.ar   73  DT73        0.3545
   1466  O2        24.1150  -17.2590   -4.8730 O.2    73  DT73       -0.2443
   1467  N3        22.4240  -17.7010   -6.3180 N.ar   73  DT73       -0.1533
   1468  C4        21.7430  -18.4810   -7.2300 C.ar   73  DT73        0.2804
   1469  O4        20.7070  -18.0560   -7.7340 O.2    73  DT73       -0.2654
   1470  C5        22.3480  -19.7550   -7.4990 C.ar   73  DT73        0.0534
   1471  C6        23.4820  -20.0910   -6.8780 C.ar   73  DT73        0.0824
   1472  C7        21.6820  -20.6770   -8.4770 C.3    73  DT73        0.0377
   1473  P         25.6710  -21.2550   -1.3490 P.3    74  DC74        0.2141
   1474  OP1       26.9480  -21.9560   -1.0800 O.2    74  DC74       -0.5172
   1475  OP2       24.5320  -21.3860   -0.4140 O.3    74  DC74       -0.4373
   1476  O5'       25.9350  -19.6800   -1.4080 O.3    74  DC74       -0.3114
   1477  C5'       25.5320  -18.8450   -0.3350 C.3    74  DC74        0.1811
   1478  C4'       25.1880  -17.4690   -0.8410 C.3    74  DC74        0.1746
   1479  O4'       24.5790  -17.5700   -2.1540 O.3    74  DC74       -0.3327
   1480  C3'       24.1810  -16.6910   -0.0080 C.3    74  DC74        0.1558
   1481  O3'       24.7880  -16.0450    1.0980 O.3    74  DC74       -0.3138
   1482  C2'       23.5630  -15.7400   -1.0280 C.3    74  DC74        0.0866
   1483  C1'       23.5840  -16.5810   -2.3060 C.3    74  DC74        0.2106
   1484  N1        22.1120  -17.4580   -2.3520 N.ar   74  DC74       -0.2556
   1485  C2        20.8380  -16.8920   -2.2260 C.ar   74  DC74        0.3531
   1486  O2        20.7340  -15.7580   -1.7290 O.2    74  DC74       -0.2443
   1487  N3        19.7600  -17.5950   -2.6470 N.ar   74  DC74       -0.1739
   1488  C4        19.9190  -18.8100   -3.1730 C.ar   74  DC74        0.1759
   1489  N4        18.8270  -19.4650   -3.5740 N.pl3  74  DC74       -0.1070
   1490  C5        21.2010  -19.4010   -3.3090 C.ar   74  DC74        0.0566
   1491  C6        22.2640  -18.7030   -2.8930 C.ar   74  DC74        0.0849
   1492  P         23.8650  -15.1750    2.1360 P.3    75  DA75        0.2141
   1493  OP1       24.8830  -14.1000    2.0880 O.2    75  DA75       -0.5172
   1494  OP2       23.8450  -16.1240    3.2730 O.3    75  DA75       -0.4373
   1495  O5'       22.4310  -14.5100    1.9820 O.3    75  DA75       -0.3114
   1496  C5'       22.0360  -14.0100    0.6930 C.3    75  DA75        0.1811
   1497  C4'       20.8910  -14.8160    0.1130 C.3    75  DA75        0.1746
   1498  O4'       21.1710  -16.2430    0.0980 O.3    75  DA75       -0.3327
   1499  C3'       19.5840  -14.7540    0.8660 C.3    75  DA75        0.1558
   1500  O3'       18.9570  -13.5050    0.6580 O.3    75  DA75       -0.3138
   1501  C2'       18.8200  -15.9180    0.2450 C.3    75  DA75        0.0865
   1502  C1'       19.9360  -16.9580    0.1140 C.3    75  DA75        0.2094
   1503  N9        19.8090  -17.7640    1.2990 N.ar   75  DA75       -0.2714
   1504  C8        20.8150  -17.7780    2.2310 C.ar   75  DA75        0.1815
   1505  N7        20.7350  -18.7730    3.0810 N.ar   75  DA75       -0.2193
   1506  C5        19.5990  -19.4600    2.6820 C.ar   75  DA75        0.1518
   1507  C6        18.9690  -20.6150    3.1780 C.ar   75  DA75        0.1919
   1508  N6        19.4160  -21.3090    4.2270 N.pl3  75  DA75       -0.1054
   1509  N1        17.8500  -21.0360    2.5500 N.ar   75  DA75       -0.2040
   1510  C2        17.4030  -20.3410    1.4980 C.ar   75  DA75        0.2016
   1511  N3        17.9080  -19.2430    0.9400 N.ar   75  DA75       -0.2048
   1512  C4        19.0180  -18.8500    1.5870 C.ar   75  DA75        0.1691
   1513  P         18.1640  -13.0030    1.6430 P.3    76  DA76        0.2141
   1514  OP1       17.8710  -11.6400    1.1370 O.2    76  DA76       -0.5172
   1515  OP2       18.6180  -13.2060    3.0410 O.3    76  DA76       -0.4373
   1516  O5'       16.9110  -13.9940    1.5360 O.3    76  DA76       -0.3114
   1517  C5'       15.9550  -13.8360    0.4970 C.3    76  DA76        0.1811
   1518  C4'       14.9530  -14.9580    0.5160 C.3    76  DA76        0.1746
   1519  O4'       15.6510  -16.2110    0.7200 O.3    76  DA76       -0.3327
   1520  C3'       13.9350  -14.9170    1.6450 C.3    76  DA76        0.1558
   1521  O3'       12.8350  -14.0830    1.3450 O.3    76  DA76       -0.3138
   1522  C2'       13.5460  -16.3770    1.8250 C.3    76  DA76        0.0865
   1523  C1'       14.8480  -17.0930    1.4750 C.3    76  DA76        0.2094
   1524  N9        15.5730  -17.5520    2.6140 N.ar   76  DA76       -0.2714
   1525  C8        16.4330  -16.8200    3.3900 C.ar   76  DA76        0.1815
   1526  N7        16.9450  -17.4940    4.3920 N.ar   76  DA76       -0.2193
   1527  C5        16.3820  -18.7540    4.2660 C.ar   76  DA76        0.1518
   1528  C6        16.5210  -19.9320    5.0220 C.ar   76  DA76        0.1919
   1529  N6        17.3050  -20.0320    6.0980 N.pl3  76  DA76       -0.1054
   1530  N1        15.8190  -21.0150    4.6280 N.ar   76  DA76       -0.2040
   1531  C2        15.0350  -20.9150    3.5490 C.ar   76  DA76        0.2016
   1532  N3        14.8230  -19.8650    2.7580 N.ar   76  DA76       -0.2048
   1533  C4        15.5340  -18.8050    3.1770 C.ar   76  DA76        0.1691
   1534  P         12.2330  -13.2360    2.4700 P.3    77  DT77        0.2141
   1535  OP1       11.1610  -12.2650    2.1250 O.2    77  DT77       -0.5172
   1536  OP2       13.3160  -12.8300    3.4070 O.3    77  DT77       -0.4373
   1537  O5'       11.5410  -14.5570    3.0450 O.3    77  DT77       -0.3114
   1538  C5'       10.4010  -15.1530    2.3820 C.3    77  DT77        0.1811
   1539  C4'        9.8670  -16.3240    3.1810 C.3    77  DT77        0.1746
   1540  O4'       10.8620  -17.3820    3.2260 O.3    77  DT77       -0.3327
   1541  C3'        9.5440  -16.0480    4.6410 C.3    77  DT77        0.1558
   1542  O3'        8.2620  -15.4640    4.8230 O.3    77  DT77       -0.3138
   1543  C2'        9.6450  -17.4330    5.2700 C.3    77  DT77        0.0866
   1544  C1'       10.7970  -18.0500    4.4770 C.3    77  DT77        0.2106
   1545  N1        12.0850  -17.8800    5.1910 N.ar   77  DT77       -0.2559
   1546  C2        12.3490  -18.7030    6.2700 C.ar   77  DT77        0.3545
   1547  O2        11.5750  -19.5620    6.6550 O.2    77  DT77       -0.2443
   1548  N3        13.5570  -18.4830    6.8870 N.ar   77  DT77       -0.1533
   1549  C4        14.5060  -17.5440    6.5410 C.ar   77  DT77        0.2804
   1550  O4        15.5460  -17.4660    7.1910 O.2    77  DT77       -0.2654
   1551  C5        14.1580  -16.7280    5.4110 C.ar   77  DT77        0.0534
   1552  C6        12.9900  -16.9210    4.7930 C.ar   77  DT77        0.0824
   1553  C7        15.1260  -15.6760    4.9560 C.3    77  DT77        0.0377
   1554  P          7.9080  -14.5420    6.3640 P.3    78  DT78        0.2141
   1555  OP1        7.0190  -13.4520    5.9040 O.2    78  DT78       -0.5172
   1556  OP2        9.3490  -14.2890    6.5870 O.3    78  DT78       -0.4373
   1557  O5'        7.4160  -15.1250    7.7680 O.3    78  DT78       -0.3114
   1558  C5'        6.6710  -16.3300    7.7270 C.3    78  DT78        0.1811
   1559  C4'        7.1350  -17.3110    8.7710 C.3    78  DT78        0.1746
   1560  O4'        8.4650  -17.7920    8.4700 O.3    78  DT78       -0.3327
   1561  C3'        7.1990  -16.7610   10.1840 C.3    78  DT78        0.1558
   1562  O3'        5.9480  -16.9990   10.8090 O.3    78  DT78       -0.3138
   1563  C2'        8.3830  -17.4720   10.8480 C.3    78  DT78        0.0866
   1564  C1'        9.1270  -18.1220    9.6700 C.3    78  DT78        0.2106
   1565  N1        10.3660  -17.4450    9.6480 N.ar   78  DT78       -0.2573
   1566  C2        11.3280  -17.8810   10.5390 C.ar   78  DT78        0.3344
   1567  O2        11.2120  -18.8990   11.1970 O.3    78  DT78       -0.3054
   1568  N3        12.4380  -17.0760   10.6350 N.ar   78  DT78       -0.1548
   1569  C4        12.6760  -15.9060    9.9440 C.ar   78  DT78        0.2804
   1570  O4        13.7230  -15.2920   10.1370 O.2    78  DT78       -0.2654
   1571  C5        11.6300  -15.5200    9.0390 C.ar   78  DT78        0.0534
   1572  C6        10.5400  -16.2840    8.9270 C.ar   78  DT78        0.0824
   1573  C7        11.7950  -14.2610    8.2410 C.3    78  DT78        0.0377
   1574  P          5.5180  -17.0130   11.9320 P.3    79  DA79        0.2141
   1575  OP1        6.5510  -17.5320   12.8620 O.3    79  DA79       -0.4373
   1576  OP2        4.6140  -17.9700   11.2340 O.2    79  DA79       -0.5172
   1577  O5'        4.6480  -15.9260   12.7040 O.3    79  DA79       -0.3114
   1578  C5'        3.2450  -15.8170   12.4820 C.3    79  DA79        0.1811
   1579  C4'        2.8990  -14.4280   12.0410 C.3    79  DA79        0.1746
   1580  O4'        1.6660  -14.4530   11.2910 O.3    79  DA79       -0.3327
   1581  C3'        2.6730  -13.3470   13.0960 C.3    79  DA79        0.1558
   1582  O3'        3.8750  -12.7910   13.6470 O.3    79  DA79       -0.3138
   1583  C2'        1.9000  -12.3060   12.2990 C.3    79  DA79        0.0865
   1584  C1'        1.0430  -13.1880   11.3900 C.3    79  DA79        0.2094
   1585  N9        -0.0540  -13.2640   11.0880 N.ar   79  DA79       -0.2714
   1586  C8        -0.7220  -14.3780   11.5240 C.ar   79  DA79        0.1815
   1587  N7        -2.0080  -14.1870   11.7030 N.ar   79  DA79       -0.2193
   1588  C5        -2.1970  -12.8570   11.3620 C.ar   79  DA79        0.1518
   1589  C6        -3.3410  -12.0400   11.3380 C.ar   79  DA79        0.1919
   1590  N6        -4.5600  -12.4660   11.6770 N.pl3  79  DA79       -0.1054
   1591  N1        -3.1860  -10.7570   10.9490 N.ar   79  DA79       -0.2040
   1592  C2        -1.9640  -10.3320   10.6090 C.ar   79  DA79        0.2016
   1593  N3        -0.8150  -11.0040   10.5900 N.ar   79  DA79       -0.2048
   1594  C4        -1.0030  -12.2750   10.9830 C.ar   79  DA79        0.1691
   1595  P          3.9010  -12.6050   14.5260 P.3    80  DG80        0.2141
   1596  OP1        5.2110  -12.3710   15.1570 O.2    80  DG80       -0.5172
   1597  OP2        2.9200  -13.4870   15.1810 O.3    80  DG80       -0.4373
   1598  O5'        3.1340  -11.2120   14.3720 O.3    80  DG80       -0.3114
   1599  C5'        3.8790  -10.0160   14.2190 C.3    80  DG80        0.1812
   1600  C4'        3.0160   -8.9080   13.6750 C.3    80  DG80        0.1775
   1601  O4'        1.9750   -9.4860   12.8510 O.3    80  DG80       -0.3326
   1602  C3'        2.2180   -8.1070   14.6880 C.3    80  DG80        0.1859
   1603  O3'        2.9770   -7.1530   15.3990 O.3    80  DG80       -0.2202
   1604  C2'        1.1210   -7.5060   13.8220 C.3    80  DG80        0.0894
   1605  C1'        0.7960   -8.7190   12.9680 C.3    80  DG80        0.2095
   1606  N9        -0.2580   -9.5610   13.5760 N.ar   80  DG80       -0.2713
   1607  C8        -0.0520  -10.8920   13.8450 C.ar   80  DG80        0.1816
   1608  N7        -1.1290  -11.5080   14.2500 N.ar   80  DG80       -0.2173
   1609  C5        -2.1060  -10.5300   14.2480 C.ar   80  DG80        0.1748
   1610  C6        -3.4800  -10.5960   14.5940 C.ar   80  DG80        0.3023
   1611  O6        -4.1250  -11.5770   14.9850 O.2    80  DG80       -0.2633
   1612  N1        -4.1130   -9.3650   14.4500 N.ar   80  DG80       -0.1709
   1613  C2        -3.4980   -8.2120   14.0250 C.ar   80  DG80        0.2606
   1614  N2        -4.2740   -7.1220   13.9480 N.pl3  80  DG80       -0.0859
   1615  N3        -2.2230   -8.1340   13.7010 N.ar   80  DG80       -0.1918
   1616  C4        -1.5870   -9.3180   13.8340 C.ar   80  DG80        0.1722
   1617  P          2.9730   -7.3420   16.9240 P.3    81  DA81        0.4149
   1618  OP1        3.2640   -6.3640   18.0030 O.2    81  DA81       -0.2668
   1619  OP2        2.7850   -8.7720   17.2690 O.3    81  DA81       -0.1481
   1620  O5'        1.6850   -6.8320   16.1290 O.3    81  DA81       -0.2177
   1621  C5'        1.5410   -5.4620   15.7500 C.3    81  DA81        0.2140
   1622  C4'        0.1380   -4.9620   16.0650 C.3    81  DA81        0.1776
   1623  O4'       -0.8130   -5.8960   15.4860 O.3    81  DA81       -0.3326
   1624  C3'       -0.2150   -4.9730   17.5430 C.3    81  DA81        0.1559
   1625  O3'        0.1750   -3.7490   18.1540 O.3    81  DA81       -0.3138
   1626  C2'       -1.7330   -5.0550   17.5070 C.3    81  DA81        0.0865
   1627  C1'       -1.9500   -6.0100   16.3320 C.3    81  DA81        0.2094
   1628  N9        -2.1410   -7.3890   16.9010 N.ar   81  DA81       -0.2714
   1629  C8        -1.2660   -8.4040   17.1860 C.ar   81  DA81        0.1815
   1630  N7        -1.8260   -9.4380   17.7680 N.ar   81  DA81       -0.2193
   1631  C5        -3.1600   -9.0770   17.8720 C.ar   81  DA81        0.1518
   1632  C6        -4.2820   -9.7420   18.3990 C.ar   81  DA81        0.1919
   1633  N6        -4.2320  -10.9620   18.9390 N.pl3  81  DA81       -0.1054
   1634  N1        -5.4700   -9.1030   18.3490 N.ar   81  DA81       -0.2040
   1635  C2        -5.5190   -7.8810   17.8060 C.ar   81  DA81        0.2016
   1636  N3        -4.5360   -7.1550   17.2790 N.ar   81  DA81       -0.2048
   1637  C4        -3.3690   -7.8170   17.3440 C.ar   81  DA81        0.1691
   1638  P          0.5620   -3.6990   19.6940 P.3    82  DT82        0.2141
   1639  OP1        1.0270   -2.3980   20.2320 O.3    82  DT82       -0.4373
   1640  OP2        1.4040   -4.9120   19.8190 O.2    82  DT82       -0.5172
   1641  O5'       -0.8250   -4.0840   20.3940 O.3    82  DT82       -0.3114
   1642  C5'       -1.7060   -3.0590   20.8310 C.3    82  DT82        0.1811
   1643  C4'       -2.9310   -3.6280   21.5070 C.3    82  DT82        0.1747
   1644  O4'       -3.4830   -4.7140   20.7140 O.3    82  DT82       -0.3327
   1645  C3'       -2.7170   -4.2330   22.8870 C.3    82  DT82        0.1559
   1646  O3'       -2.7740   -3.2530   23.9110 O.3    82  DT82       -0.3138
   1647  C2'       -3.8310   -5.2690   23.0070 C.3    82  DT82        0.0844
   1648  C1'       -4.1130   -5.6600   21.5550 C.3    82  DT82        0.2107
   1649  N1        -3.8120   -6.8870   21.2860 N.ar   82  DT82       -0.2559
   1650  C2        -4.6940   -7.9160   21.5550 C.ar   82  DT82        0.3544
   1651  O2        -5.8610   -7.7310   21.8480 O.3    82  DT82       -0.2458
   1652  N3        -4.1570   -9.1780   21.4690 N.ar   82  DT82       -0.1533
   1653  C4        -2.8560   -9.5060   21.1480 C.ar   82  DT82        0.2804
   1654  O4        -2.5220  -10.6880   21.1100 O.2    82  DT82       -0.2654
   1655  C5        -2.0020   -8.3830   20.8830 C.ar   82  DT82        0.0534
   1656  C6        -2.4980   -7.1450   20.9600 C.ar   82  DT82        0.0824
   1657  C7        -0.5680   -8.6370   20.5250 C.3    82  DT82        0.0377
   1658  P         -1.4000   -2.7390   24.9100 P.3    83  DA83        0.2141
   1659  OP1       -2.0710   -1.6710   25.6920 O.3    83  DA83       -0.4373
   1660  OP2       -0.2450   -2.4180   24.0360 O.2    83  DA83       -0.5172
   1661  O5'       -1.0260   -3.9000   25.9450 O.3    83  DA83       -0.3114
   1662  C5'       -1.9820   -4.2240   26.9490 C.3    83  DA83        0.1811
   1663  C4'       -1.7780   -5.6380   27.4500 C.3    83  DA83        0.1746
   1664  O4'       -1.5140   -6.5040   26.3220 O.3    83  DA83       -0.3327
   1665  C3'       -0.5640   -5.8240   28.3450 C.3    83  DA83        0.1558
   1666  O3'       -0.8630   -5.4740   29.6740 O.3    83  DA83       -0.3138
   1667  C2'       -0.3180   -7.3170   28.2140 C.3    83  DA83        0.0865
   1668  C1'       -0.5970   -7.5080   26.7250 C.3    83  DA83        0.2094
   1669  N9         0.6900   -7.3860   25.9860 N.ar   83  DA83       -0.2714
   1670  C8         1.0090   -6.4330   25.0540 C.ar   83  DA83        0.1815
   1671  N7         2.1390   -6.6640   24.4280 N.ar   83  DA83       -0.2193
   1672  C5         2.5930   -7.8480   24.9880 C.ar   83  DA83        0.1518
   1673  C6         3.7410   -8.6250   24.7550 C.ar   83  DA83        0.1919
   1674  N6         4.6780   -8.3090   23.8580 N.pl3  83  DA83       -0.1054
   1675  N1         3.8940   -9.7500   25.4850 N.ar   83  DA83       -0.2040
   1676  C2         2.9540  -10.0660   26.3830 C.ar   83  DA83        0.2016
   1677  N3         1.8340   -9.4170   26.6910 N.ar   83  DA83       -0.2048
   1678  C4         1.7120   -8.3040   25.9490 C.ar   83  DA83        0.1691
   1679  P          0.2540   -4.7770   30.5500 P.3    84  DG84        0.2141
   1680  OP1       -0.7440   -4.2710   31.5410 O.3    84  DG84       -0.4373
   1681  OP2        0.9920   -3.8230   29.6760 O.2    84  DG84       -0.5172
   1682  O5'        1.3370   -5.6290   31.3260 O.3    84  DG84       -0.3114
   1683  C5'        1.1450   -7.0120   31.5100 C.3    84  DG84        0.1811
   1684  C4'        2.4440   -7.7350   31.3320 C.3    84  DG84        0.1746
   1685  O4'        2.6720   -8.1440   29.9550 O.3    84  DG84       -0.3327
   1686  C3'        3.6940   -6.9530   31.6410 C.3    84  DG84        0.1558
   1687  O3'        3.8560   -6.6890   33.0170 O.3    84  DG84       -0.3138
   1688  C2'        4.7600   -7.8470   31.0240 C.3    84  DG84        0.0865
   1689  C1'        4.0710   -8.2890   29.7370 C.3    84  DG84        0.2094
   1690  N9         4.3620   -7.3730   28.6780 N.ar   84  DG84       -0.2713
   1691  C8         3.5550   -6.3900   28.1590 C.ar   84  DG84        0.1816
   1692  N7         4.1360   -5.6830   27.2280 N.ar   84  DG84       -0.2173
   1693  C5         5.4010   -6.2300   27.1220 C.ar   84  DG84        0.1748
   1694  C6         6.4900   -5.8830   26.2810 C.ar   84  DG84        0.3023
   1695  O6         6.5450   -4.9870   25.4300 O.2    84  DG84       -0.2633
   1696  N1         7.5970   -6.6980   26.4990 N.ar   84  DG84       -0.1709
   1697  C2         7.6490   -7.7220   27.4150 C.ar   84  DG84        0.2606
   1698  N2         8.8040   -8.3980   27.4810 N.pl3  84  DG84       -0.0859
   1699  N3         6.6470   -8.0550   28.2040 N.ar   84  DG84       -0.1918
   1700  C4         5.5610   -7.2770   28.0100 C.ar   84  DG84        0.1722
   1701  P          4.6750   -5.3620   33.4600 P.3    85  DT85        0.2141
   1702  OP1        4.2990   -5.2670   34.8860 O.3    85  DT85       -0.4373
   1703  OP2        4.5870   -4.1790   32.5740 O.2    85  DT85       -0.5172
   1704  O5'        6.2030   -5.8080   33.3670 O.3    85  DT85       -0.3114
   1705  C5'        6.6910   -6.6320   34.4080 C.3    85  DT85        0.1811
   1706  C4'        7.9100   -7.3850   33.9520 C.3    85  DT85        0.1746
   1707  O4'        7.6890   -7.8630   32.6020 O.3    85  DT85       -0.3327
   1708  C3'        9.1880   -6.5700   33.8580 C.3    85  DT85        0.1558
   1709  O3'        9.8380   -6.4480   35.1130 O.3    85  DT85       -0.3138
   1710  C2'       10.0030   -7.3220   32.8130 C.3    85  DT85        0.0866
   1711  C1'        8.9120   -7.8930   31.9030 C.3    85  DT85        0.2106
   1712  N1         8.7830   -7.2160   30.7150 N.ar   85  DT85       -0.2559
   1713  C2         9.5690   -7.5830   29.6390 C.ar   85  DT85        0.3545
   1714  O2        10.2820   -8.5710   29.6450 O.2    85  DT85       -0.2443
   1715  N3         9.4920   -6.7490   28.5510 N.ar   85  DT85       -0.1533
   1716  C4         8.7250   -5.6080   28.4320 C.ar   85  DT85        0.2804
   1717  O4         8.7600   -4.9610   27.3890 O.2    85  DT85       -0.2654
   1718  C5         7.9380   -5.2930   29.5910 C.ar   85  DT85        0.0534
   1719  C6         7.9940   -6.0870   30.6630 C.ar   85  DT85        0.0824
   1720  C7         7.0700   -4.0700   29.5610 C.3    85  DT85        0.0377
   1721  P         10.8690   -5.0570   35.5160 P.3    86  DA86        0.2141
   1722  OP1       11.6470   -4.7610   36.7480 O.3    86  DA86       -0.4373
   1723  OP2       10.1130   -3.9690   34.8430 O.2    86  DA86       -0.5172
   1724  O5'       11.8740   -5.6750   34.4470 O.3    86  DA86       -0.3114
   1725  C5'       13.0740   -4.9770   34.1190 C.3    86  DA86        0.1811
   1726  C4'       13.9750   -5.8350   33.2660 C.3    86  DA86        0.1746
   1727  O4'       14.2950   -7.0550   33.9810 O.3    86  DA86       -0.3327
   1728  C3'       13.3830   -6.3060   31.9510 C.3    86  DA86        0.1558
   1729  O3'       13.5690   -5.3150   30.9490 O.3    86  DA86       -0.3138
   1730  C2'       14.2080   -7.5530   31.6670 C.3    86  DA86        0.0865
   1731  C1'       14.3480   -8.1420   33.0730 C.3    86  DA86        0.2094
   1732  N9        13.2110   -9.0600   33.2480 N.ar   86  DA86       -0.2714
   1733  C8        11.9640   -8.6940   33.6820 C.ar   86  DA86        0.1815
   1734  N7        11.1530   -9.7070   33.8770 N.ar   86  DA86       -0.2193
   1735  C5        11.9200  -10.8130   33.5470 C.ar   86  DA86        0.1518
   1736  C6        11.6390  -12.1910   33.5420 C.ar   86  DA86        0.1919
   1737  N6        10.4590  -12.7060   33.8950 N.pl3  86  DA86       -0.1054
   1738  N1        12.6240  -13.0300   33.1580 N.ar   86  DA86       -0.2040
   1739  C2        13.8070  -12.5130   32.8050 C.ar   86  DA86        0.2016
   1740  N3        14.1900  -11.2390   32.7700 N.ar   86  DA86       -0.2048
   1741  C4        13.1890  -10.4310   33.1560 C.ar   86  DA86        0.1691
   1742  P         12.2280   -4.7780   29.9270 P.3    87  DA87        0.2141
   1743  OP1       12.2440   -3.6340   28.9910 O.2    87  DA87       -0.5172
   1744  OP2       11.0480   -4.9560   30.8150 O.3    87  DA87       -0.4373
   1745  O5'       12.5030   -6.0640   29.0240 O.3    87  DA87       -0.3114
   1746  C5'       13.6320   -6.0480   28.1660 C.3    87  DA87        0.1811
   1747  C4'       14.2080   -7.4300   27.9200 C.3    87  DA87        0.1746
   1748  O4'       14.3200   -8.2370   29.1250 O.3    87  DA87       -0.3327
   1749  C3'       13.4710   -8.3630   26.9960 C.3    87  DA87        0.1558
   1750  O3'       13.5320   -7.9690   25.6560 O.3    87  DA87       -0.3138
   1751  C2'       14.1740   -9.6880   27.2560 C.3    87  DA87        0.0865
   1752  C1'       14.3370   -9.6260   28.7690 C.3    87  DA87        0.2094
   1753  N9        13.1290  -10.3160   29.3070 N.ar   87  DA87       -0.2714
   1754  C8        11.9860   -9.7600   29.8190 C.ar   87  DA87        0.1815
   1755  N7        11.2190  -10.6170   30.4520 N.ar   87  DA87       -0.2190
   1756  C5        11.9050  -11.8160   30.3470 C.ar   87  DA87        0.1563
   1757  C6        11.6210  -13.1120   30.8120 C.ar   87  DA87        0.2254
   1758  N6        10.5240  -13.4250   31.5050 N.2    87  DA87       -0.0602
   1759  N1        12.5140  -14.0870   30.5360 N.ar   87  DA87       -0.2002
   1760  C2        13.6140  -13.7720   29.8420 C.ar   87  DA87        0.2018
   1761  N3        13.9910  -12.5930   29.3540 N.ar   87  DA87       -0.2048
   1762  C4        13.0830  -11.6470   29.6440 C.ar   87  DA87        0.1694
   1763  P         12.3310   -8.2760   24.8400 P.3    88  DG88        0.2141
   1764  OP1       12.7220   -7.8300   23.4840 O.2    88  DG88       -0.5172
   1765  OP2       11.1300   -7.6910   25.4800 O.3    88  DG88       -0.4373
   1766  O5'       12.0370   -9.8530   24.8800 O.3    88  DG88       -0.3114
   1767  C5'       13.0490  -10.8150   24.6070 C.3    88  DG88        0.1811
   1768  C4'       12.6280  -12.2340   24.9240 C.3    88  DG88        0.1746
   1769  O4'       12.5620  -12.4470   26.3580 O.3    88  DG88       -0.3327
   1770  C3'       11.2520  -12.6610   24.4480 C.3    88  DG88        0.1558
   1771  O3'       11.2080  -12.9790   23.0740 O.3    88  DG88       -0.3138
   1772  C2'       10.9540  -13.8500   25.3470 C.3    88  DG88        0.0865
   1773  C1'       11.5220  -13.3480   26.6680 C.3    88  DG88        0.2094
   1774  N9        10.4300  -12.7840   27.4080 N.ar   88  DG88       -0.2713
   1775  C8        10.2090  -11.4460   27.6270 C.ar   88  DG88        0.1816
   1776  N7         9.1490  -11.2110   28.3520 N.ar   88  DG88       -0.2173
   1777  C5         8.6390  -12.4660   28.6300 C.ar   88  DG88        0.1748
   1778  C6         7.4960  -12.8530   29.3760 C.ar   88  DG88        0.3023
   1779  O6         6.6810  -12.1280   29.9600 O.2    88  DG88       -0.2633
   1780  N1         7.3400  -14.2360   29.4090 N.ar   88  DG88       -0.1709
   1781  C2         8.1810  -15.1350   28.7990 C.ar   88  DG88        0.2606
   1782  N2         7.8670  -16.4300   28.9430 N.pl3  88  DG88       -0.0859
   1783  N3         9.2460  -14.7900   28.1020 N.ar   88  DG88       -0.1918
   1784  C4         9.4170  -13.4520   28.0550 C.ar   88  DG88        0.1722
   1785  P          9.9160  -12.5430   22.3200 P.3    89  DT89        0.2141
   1786  OP1       10.4550  -12.8590   20.9790 O.2    89  DT89       -0.5172
   1787  OP2        9.2130  -11.2640   22.5580 O.3    89  DT89       -0.4373
   1788  O5'        8.9510  -13.7410   22.7550 O.3    89  DT89       -0.3114
   1789  C5'        9.0490  -15.0210   22.1410 C.3    89  DT89        0.1811
   1790  C4'        8.2570  -16.0460   22.9360 C.3    89  DT89        0.1746
   1791  O4'        8.3290  -15.7460   24.3540 O.3    89  DT89       -0.3327
   1792  C3'        6.7620  -16.0820   22.6580 C.3    89  DT89        0.1558
   1793  O3'        6.4930  -16.8310   21.4830 O.3    89  DT89       -0.3138
   1794  C2'        6.2740  -16.8060   23.9040 C.3    89  DT89        0.0866
   1795  C1'        7.1180  -16.1280   24.9800 C.3    89  DT89        0.2106
   1796  N1         6.4150  -14.9820   25.5300 N.ar   89  DT89       -0.2559
   1797  C2         5.4450  -15.1800   26.4940 C.ar   89  DT89        0.3545
   1798  O2         5.0840  -16.2860   26.8550 O.2    89  DT89       -0.2443
   1799  N3         4.9090  -14.0320   27.0230 N.ar   89  DT89       -0.1533
   1800  C4         5.2380  -12.7340   26.6920 C.ar   89  DT89        0.2804
   1801  O4         4.6680  -11.8030   27.2560 O.2    89  DT89       -0.2654
   1802  C5         6.2520  -12.6110   25.6830 C.ar   89  DT89        0.0534
   1803  C6         6.7900  -13.7120   25.1520 C.ar   89  DT89        0.0824
   1804  C7         6.6790  -11.2390   25.2530 C.3    89  DT89        0.0377
   1805  P          5.3840  -16.4720   20.7460 P.3    90  DG90        0.2141
   1806  OP1        5.7740  -16.9830   19.4110 O.2    90  DG90       -0.5172
   1807  OP2        5.0820  -15.0350   20.9210 O.3    90  DG90       -0.4373
   1808  O5'        4.1130  -17.2760   21.2740 O.3    90  DG90       -0.3114
   1809  C5'        4.0830  -18.7090   21.2580 C.3    90  DG90        0.1811
   1810  C4'        3.1400  -19.2190   22.3230 C.3    90  DG90        0.1746
   1811  O4'        3.5090  -18.6200   23.5910 O.3    90  DG90       -0.3327
   1812  C3'        1.6660  -18.8720   22.1710 C.3    90  DG90        0.1558
   1813  O3'        1.0120  -19.8050   21.3080 O.3    90  DG90       -0.3138
   1814  C2'        1.1580  -19.0000   23.6030 C.3    90  DG90        0.0865
   1815  C1'        2.3570  -18.4820   24.3980 C.3    90  DG90        0.2094
   1816  N9         2.2570  -17.1450   24.7650 N.ar   90  DG90       -0.2713
   1817  C8         2.7940  -16.0620   24.1130 C.ar   90  DG90        0.1816
   1818  N7         2.3570  -14.9190   24.5670 N.ar   90  DG90       -0.2173
   1819  C5         1.4810  -15.2640   25.5800 C.ar   90  DG90        0.1748
   1820  C6         0.6970  -14.4520   26.4390 C.ar   90  DG90        0.3023
   1821  O6         0.6260  -13.2170   26.4710 O.2    90  DG90       -0.2633
   1822  N1        -0.0580  -15.2120   27.3280 N.ar   90  DG90       -0.1709
   1823  C2        -0.0570  -16.5850   27.3820 C.ar   90  DG90        0.2606
   1824  N2        -0.8510  -17.1400   28.3090 N.pl3  90  DG90       -0.0859
   1825  N3         0.6650  -17.3530   26.5900 N.ar   90  DG90       -0.1918
   1826  C4         1.4050  -16.6360   25.7180 C.ar   90  DG90        0.1722
   1827  P         -0.2830  -19.3430   20.3490 P.3    91  DC91        0.2141
   1828  OP1       -0.3760  -20.1710   19.1260 O.2    91  DC91       -0.5172
   1829  OP2       -0.1620  -17.8700   20.2580 O.3    91  DC91       -0.4373
   1830  O5'       -1.5660  -19.5720   21.2680 O.3    91  DC91       -0.3114
   1831  C5'       -1.5010  -20.6500   22.1870 C.3    91  DC91        0.1811
   1832  C4'       -2.3630  -20.4080   23.3980 C.3    91  DC91        0.1746
   1833  O4'       -1.8310  -19.3290   24.2110 O.3    91  DC91       -0.3327
   1834  C3'       -3.7950  -19.9760   23.1300 C.3    91  DC91        0.1558
   1835  O3'       -4.6290  -21.0440   22.7070 O.3    91  DC91       -0.3138
   1836  C2'       -4.1840  -19.4010   24.4830 C.3    91  DC91        0.0866
   1837  C1'       -2.8960  -18.6870   24.8840 C.3    91  DC91        0.2106
   1838  N1        -2.8800  -17.2440   24.4470 N.ar   91  DC91       -0.2556
   1839  C2        -3.5340  -16.2410   25.1710 C.ar   91  DC91        0.3531
   1840  O2        -4.2830  -16.5710   26.1070 O.2    91  DC91       -0.2443
   1841  N3        -3.3350  -14.9450   24.8310 N.ar   91  DC91       -0.1739
   1842  C4        -2.5230  -14.6390   23.8180 C.ar   91  DC91        0.1759
   1843  N4        -2.3570  -13.3480   23.5200 N.pl3  91  DC91       -0.1070
   1844  C5        -1.8510  -15.6400   23.0720 C.ar   91  DC91        0.0566
   1845  C6        -2.0510  -16.9190   23.4110 C.ar   91  DC91        0.0849
   1846  P         -6.1210  -20.7220   21.7880 P.3    92  DA92        0.2141
   1847  OP1       -6.9660  -21.7930   21.1950 O.3    92  DA92       -0.4373
   1848  OP2       -5.3900  -19.7820   20.8900 O.2    92  DA92       -0.5172
   1849  O5'       -7.0300  -19.8130   22.7330 O.3    92  DA92       -0.3114
   1850  C5'       -7.8580  -20.3980   23.7320 C.3    92  DA92        0.1811
   1851  C4'       -8.5410  -19.3290   24.5450 C.3    92  DA92        0.1746
   1852  O4'       -7.5400  -18.4560   25.1200 O.3    92  DA92       -0.3327
   1853  C3'       -9.4530  -18.3860   23.7870 C.3    92  DA92        0.1558
   1854  O3'      -10.7440  -18.9400   23.6410 O.3    92  DA92       -0.3138
   1855  C2'       -9.4860  -17.1670   24.6890 C.3    92  DA92        0.0865
   1856  C1'       -8.0630  -17.1500   25.2400 C.3    92  DA92        0.2094
   1857  N9        -7.1820  -16.2290   24.4700 N.ar   92  DA92       -0.2714
   1858  C8        -6.3130  -16.5090   23.4480 C.ar   92  DA92        0.1815
   1859  N7        -5.7420  -15.4460   22.9320 N.ar   92  DA92       -0.2193
   1860  C5        -6.2740  -14.3960   23.6650 C.ar   92  DA92        0.1518
   1861  C6        -6.0720  -13.0060   23.6080 C.ar   92  DA92        0.1919
   1862  N6        -5.2440  -12.4140   22.7450 N.pl3  92  DA92       -0.1054
   1863  N1        -6.7580  -12.2370   24.4810 N.ar   92  DA92       -0.2040
   1864  C2        -7.5870  -12.8320   25.3460 C.ar   92  DA92        0.2016
   1865  N3        -7.8600  -14.1260   25.4960 N.ar   92  DA92       -0.2048
   1866  C4        -7.1630  -14.8630   24.6140 C.ar   92  DA92        0.1691
   1867  P        -11.4610  -18.7290   22.3180 P.3    93  DA93        0.2141
   1868  OP1      -12.8520  -19.2190   22.2490 O.3    93  DA93       -0.4373
   1869  OP2      -10.4760  -19.1700   21.3000 O.2    93  DA93       -0.5172
   1870  O5'      -11.4870  -17.1240   22.3340 O.3    93  DA93       -0.3114
   1871  C5'      -12.4220  -16.4800   23.1720 C.3    93  DA93        0.1811
   1872  C4'      -12.1900  -14.9860   23.2890 C.3    93  DA93        0.1746
   1873  O4'      -10.9130  -14.6980   23.9050 O.3    93  DA93       -0.3327
   1874  C3'      -12.2260  -14.1920   21.9930 C.3    93  DA93        0.1558
   1875  O3'      -13.5940  -13.9340   21.6900 O.3    93  DA93       -0.3138
   1876  C2'      -11.4850  -12.9320   22.4240 C.3    93  DA93        0.0865
   1877  C1'      -10.4970  -13.4290   23.4700 C.3    93  DA93        0.2094
   1878  N9        -9.1590  -13.7400   22.8730 N.ar   93  DA93       -0.2714
   1879  C8        -8.7850  -14.8790   22.2080 C.ar   93  DA93        0.1815
   1880  N7        -7.7140  -14.7290   21.4640 N.ar   93  DA93       -0.2193
   1881  C5        -7.3620  -13.4020   21.6540 C.ar   93  DA93        0.1518
   1882  C6        -6.3120  -12.6200   21.1410 C.ar   93  DA93        0.1919
   1883  N6        -5.3860  -13.0850   20.2990 N.pl3  93  DA93       -0.1054
   1884  N1        -6.2460  -11.3280   21.5290 N.ar   93  DA93       -0.2040
   1885  C2        -7.1730  -10.8630   22.3740 C.ar   93  DA93        0.2016
   1886  N3        -8.2050  -11.5000   22.9230 N.ar   93  DA93       -0.2048
   1887  C4        -8.2430  -12.7800   22.5170 C.ar   93  DA93        0.1691
   1888  P        -14.5330  -13.9070   19.7720 P.3    94  DT94        0.2141
   1889  OP1      -15.9580  -14.0700   19.4000 O.3    94  DT94       -0.4373
   1890  OP2      -13.5070  -14.8340   19.2210 O.2    94  DT94       -0.5172
   1891  O5'      -14.0830  -12.4200   19.4030 O.3    94  DT94       -0.3114
   1892  C5'      -14.8240  -11.2750   19.8770 C.3    94  DT94        0.1811
   1893  C4'      -14.0120  -10.0110   19.6720 C.3    94  DT94        0.1746
   1894  O4'      -12.7780  -10.1120   20.4260 O.3    94  DT94       -0.3327
   1895  C3'      -13.5510   -9.7240   18.2480 C.3    94  DT94        0.1558
   1896  O3'      -14.5630   -9.0420   17.5120 O.3    94  DT94       -0.3138
   1897  C2'      -12.3530   -8.8190   18.4770 C.3    94  DT94        0.0866
   1898  C1'      -11.7390   -9.4510   19.7270 C.3    94  DT94        0.2106
   1899  N1       -10.7080  -10.4430   19.4030 N.ar   94  DT94       -0.2559
   1900  C2        -9.4520   -9.9520   19.0990 C.ar   94  DT94        0.3545
   1901  O2        -9.1830   -8.7640   19.1140 O.2    94  DT94       -0.2443
   1902  N3        -8.5180  -10.9060   18.7750 N.ar   94  DT94       -0.1533
   1903  C4        -8.7090  -12.2710   18.7240 C.ar   94  DT94        0.2804
   1904  O4        -7.7710  -13.0020   18.4160 O.2    94  DT94       -0.2654
   1905  C5       -10.0390  -12.7020   19.0510 C.ar   94  DT94        0.0534
   1906  C6       -10.9670  -11.7960   19.3710 C.ar   94  DT94        0.0824
   1907  C7       -10.3470  -14.1700   19.0230 C.3    94  DT94        0.0377
   1908  P        -14.4210   -8.8310   15.8320 P.3    95  DC95        0.2141
   1909  OP1      -15.6940   -8.2350   15.3530 O.2    95  DC95       -0.5172
   1910  OP2      -14.0580  -10.2220   15.4350 O.3    95  DC95       -0.4373
   1911  O5'      -13.2260   -7.8690   15.3960 O.3    95  DC95       -0.3113
   1912  C5'      -13.2810   -6.4580   15.6670 C.3    95  DC95        0.1837
   1913  C4'      -11.9290   -5.8200   15.4400 C.3    95  DC95        0.2014
   1914  O4'      -10.9440   -6.4390   16.3120 O.3    95  DC95       -0.3300
   1915  C3'      -11.3070   -5.9750   14.0610 C.3    95  DC95        0.2573
   1916  O3'      -11.8480   -5.0810   13.0950 O.3    95  DC95       -0.1873
   1917  C2'       -9.8460   -5.6660   14.3550 C.3    95  DC95        0.1160
   1918  C1'       -9.6610   -6.3690   15.7010 C.3    95  DC95        0.2133
   1919  N1        -9.1820   -7.7140   15.5240 N.ar   95  DC95       -0.2556
   1920  C2        -7.8070   -7.9220   15.3690 C.ar   95  DC95        0.3531
   1921  O2        -7.0510   -6.9350   15.3550 O.2    95  DC95       -0.2443
   1922  N3        -7.3410   -9.1870   15.2390 N.ar   95  DC95       -0.1739
   1923  C4        -8.1900  -10.2160   15.2580 C.ar   95  DC95        0.1759
   1924  N4        -7.6850  -11.4450   15.1260 N.pl3  95  DC95       -0.1070
   1925  C5        -9.5870  -10.0270   15.4140 C.ar   95  DC95        0.0566
   1926  C6       -10.0430   -8.7760   15.5420 C.ar   95  DC95        0.0849
   1927  P        -11.4110   -5.2680   11.6990 P.3    96  DT96        0.3677
   1928  OP1      -10.8910   -6.3770   12.5430 O.3    96  DT96       -0.2704
   1929  OP2      -12.3060   -4.2410   12.3000 O.3    96  DT96       -0.1493
   1930  O5'      -10.1890   -4.5040   11.0160 O.3    96  DT96       -0.2936
   1931  C5'       -9.1460   -3.9710   11.8170 C.3    96  DT96        0.1896
   1932  C4'       -7.9190   -3.6860   10.9840 C.3    96  DT96        0.2201
   1933  O4'       -8.0890   -2.4260   10.2750 O.3    96  DT96       -0.3430
   1934  C3'       -6.6850   -3.4700   11.8440 C.2    96  DT96        0.2477
   1935  O3'       -6.0710   -4.7050   12.1790 O.2    96  DT96       -0.2732
   1936  C2'       -5.8280   -2.5450   10.9910 C.3    96  DT96        0.1165
   1937  C1'       -6.8980   -1.6550   10.3570 C.3    96  DT96        0.1632
   1938  N1        -6.2630   -6.6430   11.2950 N.2    96  DT96       -0.1608
   1939  C2        -5.1490   -7.4580   11.2330 C.1    96  DT96        0.2395
   1940  O2        -4.0380   -7.0450   10.9510 O.2    96  DT96       -0.2041
   1941  N3        -5.3820   -8.7830   11.5140 N.am   96  DT96       -0.0881
   1942  C4        -6.5900   -9.3610   11.8430 C.2    96  DT96        0.2768
   1943  O4        -6.6410  -10.5680   12.0690 O.2    96  DT96       -0.2676
   1944  C5        -7.6990   -8.4500   11.8860 C.2    96  DT96        0.0541
   1945  C6        -7.5000   -7.1560   11.6170 C.2    96  DT96        0.1126
   1946  C7        -9.0570   -8.9830   12.2340 C.3    96  DT96        0.0376
@<TRIPOS>BOND
     1   526   525    2
     2   546   545    2
     3   547   545    1
     4   525   528    1
     5   525   527    1
     6   525   513    1
     7   545   533    1
     8   545   548    1
     9   529   528    1
    10   529   530    1
    11   533   532    1
    12   513   512    1
    13   568   566    2
    14   532   530    1
    15   532   534    1
    16   548   549    1
    17   530   531    1
    18   549   550    1
    19   567   566    1
    20   566   553    1
    21   566   569    1
    22   512   514    1
    23   512   510    1
    24   553   552    1
    25   531   535    1
    26   534   535    1
    27   506   505    2
    28   509   510    1
    29   509   508    1
    30   550   552    1
    31   550   551    1
    32   582   581    1
    33   552   554    1
    34   514   515    1
    35   510   511    1
    36   508   505    1
    37   544   542    1
    38   583   581    2
    39   583   584    1
    40   535   536    1
    41   543   542   ar
    42   543   536   ar
    43   569   570    1
    44   581   580    1
    45   505   507    1
    46   505   492    1
    47   551   555    1
    48   557   558   ar
    49   557   556   ar
    50   620   619    2
    51   542   540   ar
    52   536   537   ar
    53   558   559   ar
    54   584   577    1
    55   601   600    1
    56   554   555    1
    57   511   515    1
    58   515   516    1
    59   570   571    1
    60   556   555    1
    61   556   565   ar
    62   587   585    2
    63   492   491    1
    64   580   578    2
    65   619   618   am
    66   619   621    1
    67   537   539   ar
    68   537   538    2
    69   540   539   ar
    70   540   541    2
    71   559   565   ar
    72   559   560   ar
    73   516   523   ar
    74   516   517   ar
    75   623   621    1
    76   523   522   ar
    77   602   600   ar
    78   602   603   ar
    79   600   599   ar
    80   577   578    1
    81   577   576    1
    82   618   616   am
    83   518   517    2
    84   565   564   ar
    85   561   560    1
    86   517   519   ar
    87   578   579    1
    88   586   585    1
    89   571   572    1
    90   571   573    1
    91   621   622    2
    92   572   576    1
    93   560   562   ar
    94   585   574    1
    95   585   588    1
    96   573   574    1
    97   573   575    1
    98   522   524    1
    99   522   520   ar
   100   491   493    1
   101   491   489    1
   102   519   520   ar
   103   576   575    1
   104   493   494    1
   105   603   596   ar
   106   599   597   ar
   107   564   563   ar
   108   520   521    2
   109   616   617    2
   110   616   615    2
   111   562   563   ar
   112   588   589    1
   113   579   638    1
   114   622   615    1
   115   485   484    2
   116   489   488    1
   117   489   490    1
   118   640   639    2
   119   488   487    1
   120   662   661   ar
   121   662   663   ar
   122   487   484    1
   123   596   597   ar
   124   596   595    1
   125   597   598    2
   126   661   659   ar
   127   638   639   ar
   128   638   636   ar
   129   494   490    1
   130   494   495    1
   131   484   486    1
   132   484   473    1
   133   639   641   ar
   134   663   664   ar
   135   589   590    1
   136   591   595    1
   137   591   590    1
   138   637   636    2
   139   495   496   ar
   140   495   504   ar
   141   595   594    1
   142   636   635   ar
   143   503   504   ar
   144   503   502   ar
   145   659   660    1
   146   659   658   ar
   147   496   497   ar
   148   606   604    1
   149   504   498   ar
   150   502   501   ar
   151   590   592    1
   152   664   658   ar
   153   664   655   ar
   154   497   498   ar
   155   498   499   ar
   156   592   594    1
   157   592   593    1
   158   641   643    1
   159   641   642   ar
   160   473   472    1
   161   678   677    2
   162   658   657   ar
   163   610   614    1
   164   610   609    1
   165   501   499   ar
   166   499   500    1
   167   675   671    1
   168   675   674    1
   169   675   676    1
   170   671   670    1
   171   604   607    1
   172   604   605    1
   173   691   690    1
   174   691   695    1
   175   614   613    1
   176   635   642   ar
   177   635   634    1
   178   607   608    1
   179   655   654    1
   180   655   656   ar
   181   654   653    1
   182   654   650    1
   183   674   672    1
   184   670   669    1
   185   670   672    1
   186   690   689    1
   187   690   692    1
   188   695   694    1
   189   695   696    1
   190   677   676   ar
   191   677   679   ar
   192   593   605    1
   193   657   656   ar
   194   676   683   ar
   195   689   688    1
   196   472   474    1
   197   472   470    1
   198   609   608    1
   199   609   611    1
   200   653   651    1
   201   650   649    1
   202   474   475    1
   203   694   692    1
   204   704   703   ar
   205   704   705   ar
   206   669   668    1
   207   672   673    1
   208   696   705   ar
   209   696   697   ar
   210   679   680   ar
   211   673   685    1
   212   634   630    1
   213   634   633    1
   214   692   693    1
   215   703   702   ar
   216   705   699   ar
   217   613   611    1
   218   683   682   ar
   219   693   706    1
   220   630   629    1
   221   612   611    1
   222   612   626    1
   223   688   685    1
   224   478   477    2
   225   470   469    1
   226   470   471    1
   227   649   651    1
   228   649   648    1
   229   697   698   ar
   230   626   624    1
   231   651   652    1
   232   680   682   ar
   233   680   681    2
   234   712   716    1
   235   712   711    1
   236   469   468    1
   237   682   684    1
   238   702   700   ar
   239   475   476    1
   240   475   471    1
   241   668   665    1
   242   633   631    1
   243   628   629    1
   244   628   627    1
   245   477   476   ar
   246   477   479   ar
   247   685   686    2
   248   685   687    1
   249   699   698   ar
   250   699   700   ar
   251   476   483   ar
   252   716   715    1
   253   716   717    1
   254   479   480   ar
   255   711   710    1
   256   711   713    1
   257   652   665    1
   258   629   631    1
   259   700   701    1
   260   707   706    2
   261   483   482   ar
   262   648   647    1
   263   624   627    1
   264   624   625    1
   265   706   709    1
   266   706   708    1
   267   710   709    1
   268   647   644    1
   269   715   713    1
   270   480   482   ar
   271   480   481    1
   272   665   666    2
   273   665   667    1
   274   467   465    2
   275   466   465    1
   276   631   632    1
   277   468   465    1
   278   717   724   ar
   279   717   718   ar
   280   719   718    2
   281   713   714    1
   282   632   644    1
   283   465   451    1
   284   724   723   ar
   285   718   720   ar
   286   714   725    1
   287   644   646    2
   288   644   645    1
   289   723   721   ar
   290   720   721   ar
   291   721   722    1
   292   726   725    2
   293   451   450    1
   294   729   730    1
   295   729   728    1
   296   731   730    1
   297   731   735    1
   298   725   728    1
   299   725   727    1
   300   462   461    1
   301   730   732    1
   302   460   461   ar
   303   460   458   ar
   304   461   463   ar
   305   450   452    1
   306   450   448    1
   307   452   453    1
   308   735   736    1
   309   735   734    1
   310   459   458    2
   311   458   457   ar
   312   463   464   ar
   313   743   736   ar
   314   743   742   ar
   315   464   457   ar
   316   464   454   ar
   317   457   456   ar
   318   736   737   ar
   319   732   734    1
   320   732   733    1
   321   742   740   ar
   322   444   443    2
   323   454   453    1
   324   454   455   ar
   325   456   455   ar
   326   448   447    1
   327   448   449    1
   328   453   449    1
   329   445   443    1
   330   733   744    1
   331   446   447    1
   332   446   443    1
   333   737   738    2
   334   737   739   ar
   335   443   432    1
   336   740   739   ar
   337   740   741    1
   338   744   746    2
   339   744   745    1
   340   744   747    1
   341   747   748    1
   342   748   749    1
   343   750   749    1
   344   750   754    1
   345   432   431    1
   346   426   424    2
   347   384   383    2
   348   425   424    1
   349   749   751    1
   350   431   433    1
   351   431   429    1
   352   385   383    1
   353   440   439    1
   354   756   757   ar
   355   756   755   ar
   356   754   755    1
   357   754   753    1
   358   441   439   ar
   359   441   442   ar
   360   757   758   ar
   361   439   438   ar
   362   755   764   ar
   363   383   370    1
   364   383   386    1
   365   428   429    1
   366   428   427    1
   367   406   404    2
   368   442   435   ar
   369   433   434    1
   370   758   764   ar
   371   758   759   ar
   372   438   436   ar
   373   363   362    2
   374   764   763   ar
   375   429   430    1
   376   435   436   ar
   377   435   434    1
   378   760   759    1
   379   759   761   ar
   380   436   437    2
   381   427   412    1
   382   405   404    1
   383   763   762   ar
   384   751   753    1
   385   751   752    1
   386   370   369    1
   387   386   387    1
   388   761   762   ar
   389   404   407    1
   390   404   391    1
   391   434   430    1
   392   412   411    1
   393   423   421    1
   394   407   408    1
   395   387   388    1
   396   420   419    2
   397   752   765    1
   398   362   365    1
   399   362   364    1
   400   362   350    1
   401   391   390    1
   402   411   413    1
   403   411   409    1
   404   421   419   ar
   405   421   422   ar
   406   419   418   ar
   407   366   365    1
   408   366   367    1
   409   369   367    1
   410   369   371    1
   411   343   342    2
   412   408   409    1
   413   422   415   ar
   414   418   416   ar
   415   390   388    1
   416   390   392    1
   417   367   368    1
   418   350   349    1
   419   413   414    1
   420   388   389    1
   421   765   767    2
   422   765   766    1
   423   765   768    1
   424   781   780    2
   425   409   410    1
   426   415   416   ar
   427   415   414    1
   428   416   417    1
   429   780   782    1
   430   780   779    1
   431   782   783    2
   432   771   775    1
   433   771   770    1
   434   778   779   ar
   435   778   777   ar
   436   779   786   ar
   437   371   372    1
   438   783   784    2
   439   783   785    1
   440   777   776   ar
   441   784   417    1
   442   786   785    1
   443   786   776   ar
   444   776   775    1
   445   342   344    1
   446   342   345    1
   447   342   330    1
   448   775   774    1
   449   414   410    1
   450   395   396   ar
   451   395   394   ar
   452   768   769    1
   453   396   397   ar
   454   389   393    1
   455   346   345    1
   456   346   347    1
   457   349   347    1
   458   349   351    1
   459   392   393    1
   460   368   372    1
   461   769   770    1
   462   770   772    1
   463   372   373    1
   464   347   348    1
   465   374   375   ar
   466   374   373   ar
   467   394   393    1
   468   394   403   ar
   469   330   329    1
   470   397   403   ar
   471   397   398   ar
   472   351   352    1
   473   375   376   ar
   474   774   772    1
   475   373   382   ar
   476   399   398    1
   477   403   402   ar
   478   772   773    1
   479   398   400   ar
   480   348   352    1
   481   376   382   ar
   482   376   377   ar
   483   329   331    1
   484   329   327    1
   485   382   381   ar
   486   803   802    1
   487   323   322    2
   488   352   353    1
   489   402   401   ar
   490   360   353   ar
   491   360   359   ar
   492   361   359    1
   493   802   801   ar
   494   802   804   ar
   495   801   799   ar
   496   773   787    1
   497   400   401   ar
   498   326   325    1
   499   326   327    1
   500   325   322    1
   501   331   332    1
   502   381   380   ar
   503   353   354   ar
   504   799   800    2
   505   799   798   ar
   506   804   805   ar
   507   377   378    1
   508   377   379   ar
   509   359   357   ar
   510   327   328    1
   511   805   798   ar
   512   798   797    1
   513   322   324    1
   514   322   309    1
   515   793   797    1
   516   793   792    1
   517   380   379   ar
   518   354   355    2
   519   354   356   ar
   520   797   796    1
   521   357   356   ar
   522   357   358    2
   523   789   787    2
   524   787   790    1
   525   787   788    1
   526   332   328    1
   527   332   333    1
   528   791   790    1
   529   791   792    1
   530   822   821    2
   531   792   794    1
   532   309   308    1
   533   340   333   ar
   534   340   339   ar
   535   333   334   ar
   536   796   794    1
   537   821   820   ar
   538   821   823   ar
   539   820   818   ar
   540   341   339    1
   541   339   337   ar
   542   334   335    2
   543   334   336   ar
   544   794   795    1
   545   336   337   ar
   546   308   310    1
   547   308   306    1
   548   337   338    2
   549   819   818    2
   550   818   817   ar
   551   839   838    2
   552   823   825    1
   553   823   824   ar
   554   864   863   ar
   555   864   865   ar
   556   840   838   ar
   557   840   841   ar
   558   310   311    1
   559   842   841    2
   560   863   861   ar
   561   865   866   ar
   562   838   837   ar
   563   817   824   ar
   564   817   816    1
   565   795   806    1
   566   841   843   ar
   567   306   305    1
   568   306   307    1
   569   305   304    1
   570   304   301    1
   571   302   301    2
   572   861   862    1
   573   861   860   ar
   574   816   812    1
   575   816   815    1
   576   866   860   ar
   577   866   857   ar
   578   812   811    1
   579   837   836    1
   580   837   844   ar
   581   311   312    1
   582   311   307    1
   583   860   859   ar
   584   808   806    2
   585   301   303    1
   586   301   288    1
   587   312   313   ar
   588   312   321   ar
   589   843   844   ar
   590   843   845    1
   591   806   809    1
   592   806   807    1
   593   313   314   ar
   594   857   856    1
   595   857   858   ar
   596   856   855    1
   597   856   852    1
   598   321   320   ar
   599   321   315   ar
   600   320   319   ar
   601   836   832    1
   602   836   835    1
   603   873   877    1
   604   873   872    1
   605   880   879    2
   606   314   315   ar
   607   315   316   ar
   608   809   810    1
   609   319   318   ar
   610   877   878    1
   611   877   876    1
   612   815   813    1
   613   855   853    1
   614   852   851    1
   615   859   858   ar
   616   316   318   ar
   617   316   317    1
   618   879   878   ar
   619   879   881   ar
   620   832   831    1
   621   811   810    1
   622   811   813    1
   623   878   885   ar
   624   835   833    1
   625   872   871    1
   626   872   874    1
   627   288   287    1
   628   881   882   ar
   629   871   870    1
   630   813   814    1
   631   876   874    1
   632   851   853    1
   633   851   850    1
   634   885   884   ar
   635   853   854    1
   636   882   884   ar
   637   882   883    2
   638   884   886    1
   639   831   833    1
   640   831   830    1
   641   874   875    1
   642   287   289    1
   643   287   285    1
   644   833   834    1
   645   289   290    1
   646   870   867    1
   647   854   867    1
   648   850   849    1
   649   814   826    1
   650   893   897    1
   651   893   892    1
   652   900   899    2
   653   875   887    1
   654   829   830    1
   655   829   826    1
   656   281   280    2
   657   897   898    1
   658   897   896    1
   659   848   846    2
   660   899   898   ar
   661   899   901   ar
   662   282   280    1
   663   834   846    1
   664   867   868    2
   665   867   869    1
   666   898   905   ar
   667   283   280    1
   668   283   284    1
   669   285   284    1
   670   285   286    1
   671   901   902   ar
   672   828   826    2
   673   298   297   ar
   674   298   299   ar
   675   297   295   ar
   676   849   846    1
   677   280   269    1
   678   826   827    1
   679   299   300   ar
   680   892   891    1
   681   892   894    1
   682   295   296    1
   683   295   294   ar
   684   290   291    1
   685   290   286    1
   686   300   294   ar
   687   300   291   ar
   688   294   293   ar
   689   291   292   ar
   690   293   292   ar
   691   846   847    1
   692   891   890    1
   693   905   904   ar
   694   902   904   ar
   695   902   903    2
   696   896   894    1
   697   904   906    1
   698   888   887    2
   699   887   890    1
   700   887   889    1
   701   894   895    1
   702   269   268    1
   703   262   261    2
   704   913   917    1
   705   913   912    1
   706   895   907    1
   707   917   918    1
   708   917   916    1
   709   920   919    2
   710   263   261    1
   711   268   270    1
   712   268   266    1
   713   918   919   ar
   714   918   925   ar
   715   919   921   ar
   716   277   276    1
   717   925   924   ar
   718   912   911    1
   719   912   914    1
   720   921   922   ar
   721   261   264    1
   722   261   249    1
   723   911   910    1
   724   924   922   ar
   725   922   923    1
   726   276   278   ar
   727   276   275   ar
   728   278   279   ar
   729   270   271    1
   730  1454  1453    2
   731  1472  1470    1
   732   275   273   ar
   733   265   266    1
   734   265   264    1
   735   279   272   ar
   736   916   914    1
   737   907   910    1
   738   907   909    2
   739   907   908    1
   740   266   267    1
   741   273   272   ar
   742   273   274    2
   743   272   271    1
   744  1469  1468    2
   745   914   915    1
   746  1470  1468   ar
   747  1470  1471   ar
   748   271   267    1
   749   243   241    2
   750   249   248    1
   751   257   256    2
   752  1468  1467   ar
   753   260   258    1
   754  1453  1455    1
   755  1453  1441    1
   756  1453  1456    1
   757  1434  1433    2
   758   932   936    1
   759   932   931    1
   760  1471  1464   ar
   761   256   258   ar
   762   256   255   ar
   763   915   926    1
   764   943   944   ar
   765   943   941   ar
   766   944   945   ar
   767   942   941    1
   768   941   940   ar
   769   258   259   ar
   770   945   946   ar
   771   248   250    1
   772   248   246    1
   773   940   946   ar
   774   940   939   ar
   775  1441  1440    1
   776   946   937   ar
   777   936   937    1
   778   936   935    1
   779   242   241    1
   780   939   938   ar
   781   937   938   ar
   782   241   244    1
   783   241   229    1
   784  1467  1465   ar
   785  1459  1463    1
   786  1459  1458    1
   787   255   253   ar
   788   250   251    1
   789  1456  1457    1
   790   259   252   ar
   791   244   245    1
   792  1464  1463    1
   793  1464  1465   ar
   794  1463  1462    1
   795   931   930    1
   796   931   933    1
   797   930   929    1
   798   929   926    1
   799  1465  1466    2
   800   223   221    2
   801   253   252   ar
   802   253   254    2
   803  1433  1420    1
   804  1433  1436    1
   805  1433  1435    1
   806  1437  1436    1
   807  1437  1438    1
   808   252   251    1
   809  1457  1458    1
   810   202   200    2
   811  1440  1438    1
   812  1440  1442    1
   813   926   927    2
   814   926   928    1
   815   246   245    1
   816   246   247    1
   817  1420  1419    1
   818  1458  1460    1
   819   935   933    1
   820   240   238    1
   821   201   200    1
   822  1438  1439    1
   823   222   221    1
   824   251   247    1
   825   229   228    1
   826   224   221    1
   827   224   225    1
   828   221   208    1
   829   237   236    2
   830   933   934    1
   831   181   180    2
   832   200   203    1
   833   200   188    1
   834   238   236   ar
   835   238   239   ar
   836   228   226    1
   837   228   230    1
   838  1462  1460    1
   839   236   235   ar
   840  1442  1443    1
   841   225   226    1
   842  1460  1461    1
   843   239   232   ar
   844  1419  1417    1
   845  1419  1421    1
   846   235   233   ar
   847  1439  1443    1
   848  1489  1488    1
   849   963   962    1
   850  1417  1416    1
   851  1417  1418    1
   852   203   204    1
   853   226   227    1
   854   934   947    1
   855  1416  1415    1
   856   230   231    1
   857  1421  1422    1
   858  1490  1488   ar
   859  1490  1491   ar
   860   232   233   ar
   861   232   231    1
   862   208   207    1
   863  1488  1487   ar
   864   180   182    1
   865   180   183    1
   866   180   168    1
   867   233   234    2
   868   188   187    1
   869  1443  1444    1
   870   962   964   ar
   871   962   961   ar
   872  1491  1484   ar
   873  1461  1473    1
   874   960   961   ar
   875   960   959   ar
   876   964   965   ar
   877   227   231    1
   878   183   184    1
   879   961   967   ar
   880  1487  1485   ar
   881   204   205    1
   882  1413  1412    2
   883   207   205    1
   884   207   209    1
   885   161   160    2
   886  1484  1483    1
   887  1484  1485   ar
   888   959   958   ar
   889  1483  1479    1
   890  1483  1482    1
   891   168   167    1
   892   965   966   ar
   893  1485  1486    2
   894  1418  1422    1
   895  1415  1412    1
   896   187   185    1
   897   187   189    1
   898   967   958   ar
   899   967   966   ar
   900  1479  1478    1
   901  1451  1444   ar
   902  1451  1450   ar
   903  1422  1423    1
   904   184   185    1
   905  1444  1445   ar
   906   213   212   ar
   907   213   214   ar
   908   958   957    1
   909   949   947    2
   910   947   948    1
   911   947   950    1
   912   953   957    1
   913   953   952    1
   914   212   211   ar
   915   199   197    1
   916   205   206    1
   917   216   215    1
   918  1412  1400    1
   919  1412  1414    1
   920  1400  1399    1
   921  1476  1473    1
   922  1476  1477    1
   923   185   186    1
   924   957   956    1
   925  1473  1474    2
   926  1473  1475    1
   927  1452  1450    1
   928   214   215   ar
   929   214   220   ar
   930   209   210    1
   931  1450  1448   ar
   932   215   217   ar
   933   167   165    1
   934   167   169    1
   935   189   190    1
   936   164   163    1
   937   164   165    1
   938   160   163    1
   939   160   162    1
   940   160   149    1
   941  1482  1480    1
   942  1423  1432   ar
   943  1423  1424   ar
   944   211   220   ar
   945   211   210    1
   946   951   950    1
   947   951   952    1
   948   197   198   ar
   949   197   195   ar
   950  1445  1446    2
   951  1445  1447   ar
   952  1478  1477    1
   953  1478  1480    1
   954   198   191   ar
   955  1431  1432   ar
   956  1431  1430   ar
   957   206   210    1
   958   220   219   ar
   959   952   954    1
   960   165   166    1
   961   217   218   ar
   962  1401  1399    1
   963  1401  1402    1
   964  1432  1426   ar
   965   984   983    2
   966  1399  1397    1
   967   186   190    1
   968   195   196    2
   969   195   194   ar
   970  1424  1425   ar
   971   191   190    1
   972   191   192   ar
   973   169   170    1
   974   149   148    1
   975  1480  1481    1
   976  1448  1447   ar
   977  1448  1449    2
   978  1430  1429   ar
   979   219   218   ar
   980  1498  1497    1
   981  1498  1502    1
   982  1497  1496    1
   983  1497  1499    1
   984  1502  1501    1
   985  1502  1503    1
   986   956   954    1
   987   983   982   ar
   988   983   985   ar
   989  1501  1499    1
   990   982   980   ar
   991   987   985    1
   992   954   955    1
   993  1517  1518    1
   994  1517  1516    1
   995  1518  1519    1
   996  1518  1520    1
   997  1397  1396    1
   998  1397  1398    1
   999   985   986   ar
  1000   194   192   ar
  1001  1500  1499    1
  1002  1500  1513    1
  1003  1496  1495    1
  1004   192   193    2
  1005  1519  1523    1
  1006  1426  1425   ar
  1007  1426  1427   ar
  1008   166   170    1
  1009   179   177    1
  1010  1511  1510   ar
  1011  1511  1512   ar
  1012   980   981    2
  1013   980   979   ar
  1014  1405  1404    2
  1015  1402  1398    1
  1016  1402  1403    1
  1017   178   177   ar
  1018   178   171   ar
  1019  1481  1492    1
  1020  1514  1513    2
  1021   986   979   ar
  1022  1396  1395    1
  1023   170   171    1
  1024  1429  1427   ar
  1025  1503  1512   ar
  1026  1503  1504   ar
  1027   979   978    1
  1028   177   175   ar
  1029  1521  1520    1
  1030  1521  1534    1
  1031   148   150    1
  1032   148   146    1
  1033   171   172   ar
  1034  1523  1522    1
  1035  1523  1524    1
  1036  1510  1509   ar
  1037  1516  1513    1
  1038  1512  1506   ar
  1039   142   141    2
  1040  1513  1515    1
  1041   978   974    1
  1042   978   977    1
  1043  1520  1522    1
  1044  1427  1428    1
  1045   955   968    1
  1046  1404  1403   ar
  1047  1404  1406   ar
  1048  1403  1410   ar
  1049   974   973    1
  1050  1495  1492    1
  1051   175   176    2
  1052   175   174   ar
  1053  1393  1392    2
  1054   150   151    1
  1055   145   146    1
  1056   145   144    1
  1057  1493  1492    2
  1058  1395  1392    1
  1059   172   174   ar
  1060   172   173    2
  1061  1535  1534    2
  1062  1492  1494    1
  1063   146   147    1
  1064  1504  1505   ar
  1065  1538  1537    1
  1066  1538  1539    1
  1067  1534  1537    1
  1068  1534  1536    1
  1069   143   141    1
  1070  1509  1507   ar
  1071  1524  1533   ar
  1072  1524  1525   ar
  1073   141   144    1
  1074   141   127    1
  1075  1406  1407   ar
  1076  1506  1505   ar
  1077  1506  1507   ar
  1078  1410  1409   ar
  1079  1532  1533   ar
  1080  1532  1531   ar
  1081  1004  1003    2
  1082   970   968    2
  1083  1392  1394    1
  1084  1392  1380    1
  1085   977   975    1
  1086   971   968    1
  1087   971   972    1
  1088   968   969    1
  1089  1533  1527   ar
  1090  1507  1508    1
  1091  1539  1540    1
  1092  1539  1541    1
  1093  1540  1544    1
  1094   973   972    1
  1095   973   975    1
  1096  1003  1002   ar
  1097  1003  1005   ar
  1098  1007  1005    1
  1099  1525  1526   ar
  1100   151   147    1
  1101   151   152    1
  1102  1002  1000   ar
  1103  1409  1407   ar
  1104  1409  1411    1
  1105  1531  1530   ar
  1106  1407  1408    2
  1107  1005  1006   ar
  1108   127   126    1
  1109  1380  1379    1
  1110   975   976    1
  1111   152   159   ar
  1112   152   153   ar
  1113  1000  1001    2
  1114  1000   999   ar
  1115  1006   999   ar
  1116  1381  1379    1
  1117  1381  1382    1
  1118   159   158   ar
  1119   154   153    2
  1120  1527  1526   ar
  1121  1527  1528   ar
  1122   999   998    1
  1123   153   155   ar
  1124  1385  1384    2
  1125  1544  1545    1
  1126  1544  1543    1
  1127  1530  1528   ar
  1128  1541  1542    1
  1129  1541  1543    1
  1130  1025  1026   ar
  1131  1025  1023   ar
  1132   158   156   ar
  1133  1379  1377    1
  1134  1024  1023    1
  1135  1552  1545   ar
  1136  1552  1551   ar
  1137  1542  1554    1
  1138   155   156   ar
  1139  1553  1551    1
  1140  1026  1027   ar
  1141   126   128    1
  1142   126   124    1
  1143   994   998    1
  1144   994   993    1
  1145  1528  1529    1
  1146   156   157    1
  1147  1023  1022   ar
  1148   998   997    1
  1149  1545  1546   ar
  1150   120   119    2
  1151   976   988    1
  1152  1384  1386   ar
  1153  1384  1383   ar
  1154  1551  1549   ar
  1155  1382  1383    1
  1156  1382  1378    1
  1157   128   129    1
  1158   990   988    2
  1159  1027  1028   ar
  1160  1386  1387   ar
  1161  1555  1554    2
  1162  1383  1390   ar
  1163  1022  1028   ar
  1164  1022  1021   ar
  1165  1377  1378    1
  1166  1377  1376    1
  1167   124   123    1
  1168   124   125    1
  1169   122   123    1
  1170   122   119    1
  1171   992   993    1
  1172   992   991    1
  1173  1028  1019   ar
  1174   988   991    1
  1175   988   989    1
  1176  1546  1547    2
  1177  1546  1548   ar
  1178   119   121    1
  1179   119   106    1
  1180   993   995    1
  1181  1554  1556    1
  1182  1554  1557    1
  1183  1549  1548   ar
  1184  1549  1550    2
  1185  1021  1020   ar
  1186   997   995    1
  1187  1387  1388    2
  1188  1387  1389   ar
  1189  1390  1389   ar
  1190   129   125    1
  1191   129   130    1
  1192  1019  1020   ar
  1193  1019  1018    1
  1194  1376  1375    1
  1195   995   996    1
  1196  1389  1391    1
  1197  1375  1372    1
  1198  1018  1014    1
  1199  1018  1017    1
  1200   130   131   ar
  1201   130   140   ar
  1202   131   132   ar
  1203  1558  1557    1
  1204  1558  1559    1
  1205   106   105    1
  1206  1014  1013    1
  1207   140   139   ar
  1208   140   133   ar
  1209   139   137   ar
  1210   132   133   ar
  1211   133   134   ar
  1212  1573  1571    1
  1213   137   138    1
  1214   137   136   ar
  1215  1042  1041    2
  1216  1560  1559    1
  1217  1560  1564    1
  1218   134   136   ar
  1219   134   135    2
  1220   996  1008    1
  1221  1366  1365    2
  1222  1373  1372    2
  1223  1372  1374    1
  1224  1372  1361    1
  1225  1039  1035    1
  1226  1039  1040    1
  1227  1039  1038    1
  1228  1367  1365   ar
  1229  1367  1368   ar
  1230  1041  1043   ar
  1231  1041  1040   ar
  1232  1559  1561    1
  1233  1017  1015    1
  1234  1043  1044   ar
  1235   100    98    2
  1236  1369  1368    1
  1237  1035  1034    1
  1238  1572  1571   ar
  1239  1572  1565   ar
  1240   105   107    1
  1241   105   103    1
  1242  1040  1047   ar
  1243  1571  1569   ar
  1244  1010  1008    2
  1245  1365  1364   ar
  1246  1044  1045    1
  1247  1044  1046   ar
  1248  1013  1012    1
  1249  1013  1015    1
  1250    99    98    1
  1251  1047  1046   ar
  1252  1368  1370   ar
  1253   107   108    1
  1254  1038  1036    1
  1255  1565  1564    1
  1256  1565  1566   ar
  1257  1564  1563    1
  1258  1011  1008    1
  1259  1011  1012    1
  1260  1362  1360    1
  1261  1362  1363    1
  1262    98   101    1
  1263    98    87    1
  1264  1008  1009    1
  1265  1347  1346    2
  1266  1361  1360    1
  1267  1015  1016    1
  1268  1569  1570    2
  1269  1569  1568   ar
  1270  1034  1036    1
  1271  1034  1033    1
  1272   103   102    1
  1273   103   104    1
  1274   102   101    1
  1275  1561  1562    1
  1276  1561  1563    1
  1277  1364  1363    1
  1278  1364  1371   ar
  1279  1933  1937    1
  1280  1933  1932    1
  1281  1360  1358    1
  1282  1937  1936    1
  1283  1370  1371   ar
  1284  1566  1568   ar
  1285  1566  1567    1
  1286  1348  1346    1
  1287  1348  1349    2
  1288  1593  1592   ar
  1289  1593  1594   ar
  1290  1592  1591   ar
  1291  1346  1345    1
  1292  1363  1359    1
  1293  1036  1037    1
  1294  1562  1574    1
  1295  1033  1032    1
  1296   108   109    1
  1297   108   104    1
  1298  1591  1589   ar
  1299  1940  1939    2
  1300  1594  1585   ar
  1301  1594  1588   ar
  1302  1932  1931    1
  1303  1932  1934    1
  1304  1936   115    1
  1305  1930  1927    1
  1306  1930  1931    1
  1307  1016  1029    1
  1308  1585  1584    1
  1309  1585  1586   ar
  1310  1054  1058    1
  1311  1054  1053    1
  1312  1567  1350    1
  1313  1939  1938    2
  1314  1939  1941   am
  1315  1576  1574    2
  1316   109   118   ar
  1317   109   110   ar
  1318  1580  1584    1
  1319  1580  1579    1
  1320  1350  1349    2
  1321  1938  1945    1
  1322    87    86    1
  1323  1589  1588   ar
  1324  1589  1590    1
  1325   117   118    1
  1326   117   116    2
  1327  1588  1587   ar
  1328  1032  1029    1
  1329  1584  1583    1
  1330   118   112   ar
  1331  1058  1059    1
  1332  1058  1057    1
  1333   110   111   ar
  1334  1941  1942   am
  1335  1586  1587   ar
  1336  1349  1351    1
  1337   116   115    1
  1338  1945  1944    2
  1339  1037  1048    1
  1340  1927  1929    1
  1341  1927  1928    1
  1342  1059  1060   ar
  1343  1059  1069   ar
  1344   112   111   ar
  1345   112   113    1
  1346  1358  1359    1
  1347  1358  1357    1
  1348  1060  1061   ar
  1349  1942  1944    1
  1350  1942  1943    2
  1351  1934   115    1
  1352  1934  1935    2
  1353  1345  1344   ar
  1354  1345  1352   ar
  1355  1944  1946    1
  1356   115   113    1
  1357  1574  1577    1
  1358  1574  1575    1
  1359  1029  1031    2
  1360  1029  1030    1
  1361  1069  1068   ar
  1362  1069  1062   ar
  1363   113   114    1
  1364  1068  1066   ar
  1365  1579  1578    1
  1366  1579  1581    1
  1367  1061  1062   ar
  1368    95    94    1
  1369    86    88    1
  1370    86    84    1
  1371  1053  1052    1
  1372  1053  1055    1
  1373  1062  1063   ar
  1374    88    89    1
  1375  1066  1067    1
  1376  1066  1065   ar
  1377  1583  1581    1
  1378  1929  1916    1
  1379  1344  1343   ar
  1380  1052  1051    1
  1381  1326  1325    1
  1382  1578  1577    1
  1383  1063  1065   ar
  1384  1063  1064    2
  1385    94    96   ar
  1386    94    93   ar
  1387  1928  1915    1
  1388  1356  1357    1
  1389  1356  1353    1
  1390    96    97   ar
  1391  1351  1352    1
  1392  1057  1055    1
  1393    35    34    2
  1394  1352  1342   ar
  1395  1601  1605    1
  1396  1601  1600    1
  1397    93    91   ar
  1398  1605  1606    1
  1399  1605  1604    1
  1400    97    90   ar
  1401  1051  1048    1
  1402    80    79    2
  1403  1916  1915    1
  1404  1581  1582    1
  1405  1048  1049    2
  1406  1048  1050    1
  1407    91    90   ar
  1408    91    92    2
  1409  1355  1353    2
  1410    90    89    1
  1411  1055  1056    1
  1412  1327  1325   ar
  1413  1327  1328   ar
  1414  1325  1324   ar
  1415  1343  1342   ar
  1416    81    79    1
  1417    82    79    1
  1418    82    83    1
  1419    76    75    1
  1420  1606  1616   ar
  1421  1606  1607   ar
  1422    84    83    1
  1423    84    85    1
  1424    34    33   ar
  1425    34    36   ar
  1426    89    85    1
  1427  1582  1595    1
  1428  1600  1599    1
  1429  1600  1602    1
  1430  1615  1616   ar
  1431  1615  1613   ar
  1432  1353  1354    1
  1433  1353  1339    1
  1434    79    68    1
  1435    38    36    1
  1436  1342  1341    1
  1437  1604  1602    1
  1438  1616  1609   ar
  1439  1607  1608   ar
  1440  1614  1613    1
  1441  1613  1612   ar
  1442  1915  1917    1
  1443  1915  1913    1
  1444    33    31   ar
  1445  1599  1598    1
  1446  1609  1608   ar
  1447  1609  1610   ar
  1448  1056  1070    1
  1449    36    37   ar
  1450  1328  1329   ar
  1451  1917  1918    1
  1452  1598  1595    1
  1453    75    77   ar
  1454    75    74   ar
  1455  1324  1323   ar
  1456  1324  1330   ar
  1457  1340  1341    1
  1458  1340  1338    1
  1459  1612  1610   ar
  1460  1595  1596    2
  1461  1595  1597    1
  1462  1610  1611    2
  1463  1333  1331    2
  1464  1602  1603    1
  1465    41    39    2
  1466  1323  1322   ar
  1467    77    78   ar
  1468    14    13    1
  1469    74    72   ar
  1470    62    60    2
  1471    21    19    2
  1472  1341  1337    1
  1473  1338  1339    1
  1474  1338  1336    1
  1475  1924  1923    1
  1476    31    32    1
  1477    31    30   ar
  1478    55    54    1
  1479  1922  1923   ar
  1480  1922  1920   ar
  1481  1923  1925   ar
  1482    37    30   ar
  1483  1330  1329   ar
  1484  1330  1321   ar
  1485  1076  1080    1
  1486  1076  1075    1
  1487  1909  1908    2
  1488  1921  1920    2
  1489  1920  1919   ar
  1490  1911  1912    1
  1491  1911  1908    1
  1492  1603  1620    1
  1493  1925  1926   ar
  1494  1910  1908    1
  1495  1913  1912    1
  1496  1913  1914    1
  1497    68    67    1
  1498  1623  1622    1
  1499  1623  1627    1
  1500    32    52    1
  1501  1919  1926   ar
  1502  1919  1918    1
  1503    78    71   ar
  1504  1070  1071    2
  1505  1070  1073    1
  1506  1070  1072    1
  1507  1918  1914    1
  1508    72    71   ar
  1509    72    73    2
  1510    30    29    1
  1511  1334  1331    1
  1512  1334  1335    1
  1513  1621  1622    1
  1514  1621  1620    1
  1515  1322  1321   ar
  1516    11    12   ar
  1517    11    10   ar
  1518    13    12   ar
  1519    13    15   ar
  1520  1331  1332    1
  1521  1331  1318    1
  1522  1908  1896    1
  1523    69    67    1
  1524    69    70    1
  1525  1074  1073    1
  1526  1074  1075    1
  1527    67    65    1
  1528    40    39    2
  1529    39    27    1
  1530  1080  1081    1
  1531  1080  1079    1
  1532    71    70    1
  1533  1622  1624    1
  1534    54    53   ar
  1535    54    56   ar
  1536  1089  1087    1
  1537  1337  1336    1
  1538  1088  1087   ar
  1539  1088  1081   ar
  1540  1087  1085   ar
  1541    52    53    1
  1542    52    51    1
  1543  1321  1320    1
  1544  1075  1077    1
  1545  1081  1082   ar
  1546    60    61    2
  1547    60    47    1
  1548  1085  1086    2
  1549  1085  1084   ar
  1550    12    18   ar
  1551    19    22    1
  1552    19    20    1
  1553    19     6    1
  1554  1082  1084   ar
  1555  1082  1083    2
  1556  1336  1335    1
  1557  1627  1628    1
  1558  1627  1626    1
  1559    22    23    1
  1560  1319  1317    1
  1561  1319  1320    1
  1562     1     2    1
  1563    15    16   ar
  1564    26    28    1
  1565    26    24    1
  1566    53    59   ar
  1567    10     9   ar
  1568    28    51    1
  1569    28    29    1
  1570    27    42    1
  1571    56    57   ar
  1572    63    47    1
  1573    63    64    1
  1574    70    66    1
  1575    42    43    1
  1576  1628  1629   ar
  1577  1628  1637   ar
  1578  1617  1619    1
  1579  1617  1618    2
  1580    51    50    1
  1581    29    25    1
  1582  1317  1318    1
  1583  1317  1315    1
  1584  1320  1316    1
  1585  1311  1310    2
  1586  1629  1630   ar
  1587  1636  1637   ar
  1588  1636  1635   ar
  1589  1312  1310    1
  1590    18     9   ar
  1591    18    17   ar
  1592  1637  1631   ar
  1593  1079  1077    1
  1594    65    64    1
  1595    65    66    1
  1596     5     6    1
  1597     5     7    1
  1598     5     3    1
  1599    16    17   ar
  1600    59    50    1
  1601    59    58   ar
  1602  1626  1624    1
  1603  1896  1895    1
  1604  1624  1625    1
  1605     9     8    1
  1606    23    24    1
  1607    57    58   ar
  1608    25    24    1
  1609     2     3    1
  1610    46    48    1
  1611    46    44    1
  1612    50    49    1
  1613  1630  1631   ar
  1614  1635  1634   ar
  1615  1310  1313    1
  1616  1310  1299    1
  1617  1631  1632   ar
  1618  1313  1314    1
  1619     7     8    1
  1620    43    44    1
  1621  1625  1638    1
  1622  1316  1315    1
  1623  1895  1897    1
  1624  1895  1893    1
  1625     3     4    1
  1626  1315  1314    1
  1627  1634  1632   ar
  1628    48    49    1
  1629  1632  1633    1
  1630  1904  1903    2
  1631     8     4    1
  1632  1897  1898    1
  1633  1078  1092    1
  1634  1078  1090    1
  1635    44    45    1
  1636  1903  1902   ar
  1637  1903  1905   ar
  1638  1902  1900   ar
  1639    49    45    1
  1640  1299  1298    1
  1641  1907  1905    1
  1642  1905  1906   ar
  1643  1900  1901    2
  1644  1900  1899   ar
  1645  1828  1827    2
  1646  1890  1888    2
  1647  1906  1899   ar
  1648  1889  1888    1
  1649  1899  1898    1
  1650  1891  1888    1
  1651  1891  1892    1
  1652  1806  1805    2
  1653  1106  1105    1
  1654  1893  1892    1
  1655  1893  1894    1
  1656  1638  1640    2
  1657  1638  1639    1
  1658  1638  1641    1
  1659  1898  1894    1
  1660  1888  1875    1
  1661  1107  1105   ar
  1662  1107  1108   ar
  1663  1090  1091    2
  1664  1105  1104   ar
  1665  1829  1827    1
  1666  1298  1300    1
  1667  1298  1296    1
  1668  1883  1882    1
  1669  1827  1830    1
  1670  1827  1813    1
  1671  1641  1642    1
  1672  1108  1101   ar
  1673  1657  1655    1
  1674  1300  1301    1
  1675  1644  1643    1
  1676  1644  1648    1
  1677  1805  1807    1
  1678  1805  1808    1
  1679  1805  1793    1
  1680  1642  1643    1
  1681  1093  1094    1
  1682  1655  1656   ar
  1683  1655  1653   ar
  1684  1848  1846    2
  1685  1656  1649   ar
  1686  1786  1785    2
  1687  1654  1653    2
  1688  1104  1102   ar
  1689  1882  1884   ar
  1690  1882  1881   ar
  1691  1653  1652   ar
  1692  1847  1846    1
  1693  1809  1808    1
  1694  1809  1810    1
  1695  1830  1831    1
  1696  1649  1648    1
  1697  1649  1650   ar
  1698  1869  1867    2
  1699  1813  1812    1
  1700  1296  1295    1
  1701  1296  1297    1
  1702  1880  1881   ar
  1703  1880  1879   ar
  1704  1652  1650   ar
  1705  1793  1792    1
  1706  1643  1645    1
  1707  1101  1102   ar
  1708  1101  1100    1
  1709  1884  1885   ar
  1710  1648  1647    1
  1711  1650  1651    1
  1712  1881  1887   ar
  1713  1875  1874    1
  1714  1094  1095    1
  1715  1295  1294    1
  1716  1096  1100    1
  1717  1096  1095    1
  1718  1846  1835    1
  1719  1846  1849    1
  1720  1102  1103    2
  1721  1651  1125    1
  1722  1292  1291    2
  1723  1874  1876    1
  1724  1874  1872    1
  1725  1301  1297    1
  1726  1301  1302    1
  1727  1789  1788    1
  1728  1789  1790    1
  1729  1294  1291    1
  1730  1812  1810    1
  1731  1812  1814    1
  1732  1831  1832    1
  1733  1879  1878   ar
  1734  1868  1867    1
  1735  1867  1870    1
  1736  1867  1854    1
  1737  1785  1787    1
  1738  1785  1788    1
  1739  1785  1771    1
  1740  1810  1811    1
  1741  1870  1871    1
  1742  1100  1099    1
  1743  1885  1886   ar
  1744  1876  1877    1
  1745  1887  1878   ar
  1746  1887  1886   ar
  1747  1095  1097    1
  1748  1792  1790    1
  1749  1792  1794    1
  1750  1835  1834    1
  1751  1125  1124    1
  1752  1849  1850    1
  1753  1862  1861    1
  1754  1304  1303    2
  1755  1291  1293    1
  1756  1291  1280    1
  1757  1878  1877    1
  1758  1645  1647    1
  1759  1645  1646    1
  1760  1859  1858   ar
  1761  1859  1860   ar
  1762  1790  1791    1
  1763  1647  1128    1
  1764  1302  1303   ar
  1765  1302  1309   ar
  1766  1128  1126    1
  1767  1844  1845   ar
  1768  1844  1842   ar
  1769  1771  1770    1
  1770  1834  1832    1
  1771  1834  1836    1
  1772  1871  1872    1
  1773  1303  1305   ar
  1774  1872  1873    1
  1775  1832  1833    1
  1776  1845  1838   ar
  1777  1858  1857   ar
  1778  1124  1126   ar
  1779  1124  1123   ar
  1780  1097  1099    1
  1781  1097  1098    1
  1782  1877  1873    1
  1783  1764  1763    2
  1784  1309  1308   ar
  1785  1843  1842    1
  1786  1811  1815    1
  1787  1814  1815    1
  1788  1861  1860   ar
  1789  1861  1863   ar
  1790  1854  1853    1
  1791  1860  1866   ar
  1792  1126  1127   ar
  1793  1850  1851    1
  1794  1305  1306   ar
  1795  1853  1851    1
  1796  1853  1855    1
  1797  1842  1841   ar
  1798  1280  1279    1
  1799  1674  1673    1
  1800  1794  1795    1
  1801  1646  1658    1
  1802  1660  1658    2
  1803  1308  1306   ar
  1804  1817  1818   ar
  1805  1817  1816   ar
  1806  1123  1121   ar
  1807  1306  1307    1
  1808  1833  1837    1
  1809  1791  1795    1
  1810  1815  1816    1
  1811  1671  1672   ar
  1812  1671  1670   ar
  1813  1838  1837    1
  1814  1838  1839   ar
  1815  1770  1768    1
  1816  1770  1772    1
  1817  1857  1866   ar
  1818  1857  1856    1
  1819  1863  1864   ar
  1820  1836  1837    1
  1821  1851  1852    1
  1822  1127  1120   ar
  1823  1818  1819   ar
  1824  1767  1766    1
  1825  1767  1768    1
  1826  1866  1865   ar
  1827  1098  1109    1
  1828  1855  1856    1
  1829  1111  1109    2
  1830  1673  1672   ar
  1831  1673  1675   ar
  1832  1816  1826   ar
  1833  1841  1839   ar
  1834  1763  1766    1
  1835  1763  1765    1
  1836  1763  1750    1
  1837  1658  1659    1
  1838  1658  1661    1
  1839  1768  1769    1
  1840  1121  1120   ar
  1841  1121  1122    2
  1842  1795  1796    1
  1843  1672  1678   ar
  1844  1279  1281    1
  1845  1279  1277    1
  1846  1670  1669   ar
  1847  1852  1856    1
  1848  1803  1796   ar
  1849  1803  1802   ar
  1850  1839  1840    2
  1851  1120  1119    1
  1852  1145  1144    2
  1853  1804  1802    1
  1854  1864  1865   ar
  1855  1281  1282    1
  1856  1772  1773    1
  1857  1695  1694    2
  1858  1675  1676   ar
  1859  1109  1112    1
  1860  1109  1110    1
  1861  1796  1797   ar
  1862  1819  1826   ar
  1863  1819  1820   ar
  1864  1750  1749    1
  1865  1802  1800   ar
  1866  1826  1825   ar
  1867  1115  1119    1
  1868  1115  1114    1
  1869  1661  1662    1
  1870  1678  1669   ar
  1871  1678  1677   ar
  1872  1112  1113    1
  1873  1669  1668    1
  1874  1144  1146   ar
  1875  1144  1143   ar
  1876  1285  1284    2
  1877  1119  1118    1
  1878  1146  1147   ar
  1879  1277  1276    1
  1880  1277  1278    1
  1881  1694  1696   ar
  1882  1694  1693   ar
  1883  1664  1668    1
  1884  1664  1663    1
  1885  1769  1773    1
  1886  1676  1677   ar
  1887  1820  1821    2
  1888  1820  1822   ar
  1889  1797  1798    2
  1890  1797  1799   ar
  1891  1696  1697   ar
  1892  1825  1823   ar
  1893  1276  1275    1
  1894  1113  1114    1
  1895  1773  1774    1
  1896  1284  1283   ar
  1897  1284  1286   ar
  1898  1800  1799   ar
  1899  1800  1801    2
  1900  1668  1667    1
  1901  1143  1142   ar
  1902  1143  1150   ar
  1903  1282  1283    1
  1904  1282  1278    1
  1905  1142  1141   ar
  1906  1283  1290   ar
  1907  1662  1663    1
  1908  1749  1751    1
  1909  1749  1747    1
  1910  1147  1148    1
  1911  1147  1149   ar
  1912  1114  1116    1
  1913  1286  1287   ar
  1914  1693  1692   ar
  1915  1693  1700   ar
  1916  1692  1691   ar
  1917  1751  1752    1
  1918  1822  1823   ar
  1919  1275  1272    1
  1920  1823  1824    1
  1921  1717  1716    2
  1922  1774  1775   ar
  1923  1774  1784   ar
  1924  1697  1698    1
  1925  1697  1699   ar
  1926  1663  1665    1
  1927  1150  1149   ar
  1928  1150  1140   ar
  1929  1118  1116    1
  1930  1775  1776   ar
  1931  1290  1289   ar
  1932  1141  1140   ar
  1933  1287  1289   ar
  1934  1287  1288    1
  1935  1116  1117    1
  1936  1747  1746    1
  1937  1747  1748    1
  1938  1167  1166    1
  1939  1700  1699   ar
  1940  1700  1690   ar
  1941  1784  1783   ar
  1942  1784  1777   ar
  1943  1783  1781   ar
  1944  1691  1690   ar
  1945  1746  1745    1
  1946  1140  1139    1
  1947  1667  1665    1
  1948  1665  1666    1
  1949  1776  1777   ar
  1950  1273  1272    2
  1951  1716  1715   ar
  1952  1716  1718   ar
  1953  1715  1713   ar
  1954  1165  1166   ar
  1955  1165  1163   ar
  1956  1777  1778   ar
  1957  1690  1689    1
  1958  1272  1274    1
  1959  1272  1259    1
  1960  1166  1168   ar
  1961  1752  1748    1
  1962  1752  1753    1
  1963  1781  1782    1
  1964  1781  1780   ar
  1965  1187  1188   ar
  1966  1187  1185   ar
  1967  1743  1742    2
  1968  1188  1189   ar
  1969  1745  1742    1
  1970  1117  1129    1
  1971  1139  1135    1
  1972  1139  1138    1
  1973  1164  1163    2
  1974  1753  1762   ar
  1975  1753  1754   ar
  1976  1163  1162   ar
  1977  1761  1762   ar
  1978  1761  1760   ar
  1979  1778  1780   ar
  1980  1778  1779    2
  1981  1135  1134    1
  1982  1720  1718    1
  1983  1131  1129    2
  1984  1718  1719   ar
  1985  1168  1169   ar
  1986  1713  1714    2
  1987  1713  1712   ar
  1988  1762  1756   ar
  1989  1666  1679    1
  1990  1681  1679    2
  1991  1186  1185    1
  1992  1189  1190   ar
  1993  1689  1685    1
  1994  1689  1688    1
  1995  1204  1203    2
  1996  1185  1184   ar
  1997  1754  1755   ar
  1998  1760  1759   ar
  1999  1259  1258    1
  2000  1742  1744    1
  2001  1742  1729    1
  2002  1685  1684    1
  2003  1132  1129    1
  2004  1132  1133    1
  2005  1129  1130    1
  2006  1162  1169   ar
  2007  1162  1161    1
  2008  1756  1755   ar
  2009  1756  1757   ar
  2010  1190  1184   ar
  2011  1190  1181   ar
  2012  1260  1258    1
  2013  1260  1261    1
  2014  1216  1220    1
  2015  1216  1215    1
  2016  1759  1757   ar
  2017  1679  1682    1
  2018  1679  1680    1
  2019  1229  1228    2
  2020  1229  1230    1
  2021  1184  1183   ar
  2022  1138  1136    1
  2023  1220  1219    1
  2024  1220  1221    1
  2025  1719  1712   ar
  2026  1203  1205   ar
  2027  1203  1202   ar
  2028  1712  1711    1
  2029  1757  1758    2
  2030  1134  1133    1
  2031  1134  1136    1
  2032  1228  1227    1
  2033  1205  1206   ar
  2034  1258  1256    1
  2035  1269  1270   ar
  2036  1269  1268   ar
  2037  1729  1728    1
  2038  1688  1686    1
  2039  1161  1157    1
  2040  1161  1160    1
  2041  1215  1214    1
  2042  1215  1217    1
  2043  1270  1271   ar
  2044  1268  1266   ar
  2045  1136  1137    1
  2046  1219  1217    1
  2047  1682  1683    1
  2048  1684  1683    1
  2049  1684  1686    1
  2050  1201  1202    1
  2051  1201  1200    1
  2052  1201  1197    1
  2053  1221  1230    1
  2054  1221  1222    1
  2055  1230  1224    1
  2056  1181  1180    1
  2057  1181  1182   ar
  2058  1758  1227    1
  2059  1244  1243    2
  2060  1183  1182   ar
  2061  1157  1156    1
  2062  1202  1209   ar
  2063  1686  1687    1
  2064  1730  1728    1
  2065  1730  1731    1
  2066  1180  1176    1
  2067  1180  1179    1
  2068  1241  1237    1
  2069  1241  1240    1
  2070  1241  1242    1
  2071  1214  1213    1
  2072  1227  1225    1
  2073  1237  1236    1
  2074  1206  1207    1
  2075  1206  1208   ar
  2076  1200  1198    1
  2077  1271  1265   ar
  2078  1271  1262   ar
  2079  1711  1707    1
  2080  1711  1710    1
  2081  1261  1262    1
  2082  1261  1257    1
  2083  1266  1267    1
  2084  1266  1265   ar
  2085  1728  1726    1
  2086  1197  1196    1
  2087  1217  1218    1
  2088  1256  1257    1
  2089  1256  1255    1
  2090  1265  1264   ar
  2091  1262  1263   ar
  2092  1243  1242   ar
  2093  1243  1245   ar
  2094  1160  1158    1
  2095  1222  1223    2
  2096  1240  1238    1
  2097  1224  1225    2
  2098  1224  1223    1
  2099  1236  1235    1
  2100  1236  1238    1
  2101  1176  1175    1
  2102  1242  1249   ar
  2103  1703  1701    2
  2104  1225  1226    1
  2105  1209  1208   ar
  2106  1707  1706    1
  2107  1179  1177    1
  2108  1137  1151    1
  2109  1153  1151    2
  2110  1740  1739   ar
  2111  1740  1741   ar
  2112  1213  1210    1
  2113  1739  1738   ar
  2114  1710  1708    1
  2115  1196  1198    1
  2116  1196  1195    1
  2117  1156  1155    1
  2118  1156  1158    1
  2119  1264  1263   ar
  2120  1687  1701    1
  2121  1255  1254    1
  2122  1731  1732    1
  2123  1731  1727    1
  2124  1235  1234    1
  2125  1245  1246   ar
  2126  1741  1732   ar
  2127  1741  1735   ar
  2128  1738  1736   ar
  2129  1238  1239    1
  2130  1198  1199    1
  2131  1732  1733   ar
  2132  1726  1727    1
  2133  1726  1725    1
  2134  1254  1251    1
  2135  1239  1251    1
  2136  1704  1701    1
  2137  1704  1705    1
  2138  1155  1154    1
  2139  1151  1154    1
  2140  1151  1152    1
  2141  1158  1159    1
  2142  1701  1702    1
  2143  1249  1248   ar
  2144  1736  1735   ar
  2145  1736  1737    1
  2146  1735  1734   ar
  2147  1733  1734   ar
  2148  1175  1177    1
  2149  1175  1174    1
  2150  1199  1210    1
  2151  1708  1706    1
  2152  1708  1709    1
  2153  1706  1705    1
  2154  1177  1178    1
  2155  1234  1231    1
  2156  1195  1194    1
  2157  1246  1248   ar
  2158  1246  1247    2
  2159  1725  1724    1
  2160  1248  1250    1
  2161  1210  1211    2
  2162  1210  1212    1
  2163  1251  1252    2
  2164  1251  1253    1
  2165  1724  1721    1
  2166  1231  1232    2
  2167  1231  1233    2
  2168  1174  1173    1
  2169  1159  1170    1
  2170  1723  1721    2
  2171  1173  1170    1
  2172  1178  1191    1
  2173  1194  1191    1
  2174  1709  1721    1
  2175  1172  1170    2
  2176  1721  1722    1
  2177  1170  1171    1
  2178  1191  1193    2
  2179  1191  1192    1
