FB1.pdb
 OpenBabel09062014203D

109108  0  0  1  0  0  0  0  0999 V2000
    7.6080   -8.3190   -2.9090 C   0  0  0  0  0  0  0  0  0  0  0  0
    7.0950   -7.2120   -1.9910 C   0  0  0  0  0  0  0  0  0  0  0  0
    7.2040   -5.8280   -2.6520 C   0  0  0  0  0  0  0  0  0  0  0  0
    6.7300   -4.6690   -1.7400 C   0  0  0  0  0  0  0  0  0  0  0  0
    6.8060   -3.2430   -2.3890 C   0  0  1  0  0  0  0  0  0  0  0  0
    5.9270   -3.2410   -3.6610 C   0  0  0  0  0  0  0  0  0  0  0  0
    6.3800   -2.0750   -1.4030 C   0  0  1  0  0  0  0  0  0  0  0  0
    7.2060   -1.9410   -0.0370 C   0  0  1  0  0  0  0  0  0  0  0  0
    8.7350   -1.5180    0.0700 C   0  0  0  0  0  0  0  0  0  0  0  0
    9.3390   -1.4600    1.6040 C   0  0  1  0  0  0  0  0  0  0  0  0
    9.2020   -2.8460    2.2320 C   0  0  0  0  0  0  0  0  0  0  0  0
   10.8450   -0.9540    1.7480 C   0  0  0  0  0  0  0  0  0  0  0  0
   11.5150   -0.4840    3.1440 C   0  0  1  0  0  0  0  0  0  0  0  0
   11.9830   -1.5050    4.2370 C   0  0  0  0  0  0  0  0  0  0  0  0
   12.6470   -0.9340    5.5720 C   0  0  0  0  0  0  0  0  0  0  0  0
   14.1990   -0.9390    5.8650 C   0  0  0  0  0  0  0  0  0  0  0  0
   15.0230    0.3570    5.6440 C   0  0  0  0  0  0  0  0  0  0  0  0
   16.4080    0.4490    6.3940 C   0  0  1  0  0  0  0  0  0  0  0  0
   17.4080   -0.6800    6.1150 C   0  0  0  0  0  0  0  0  0  0  0  0
   18.8330   -0.5710    6.7280 C   0  0  1  0  0  0  0  0  0  0  0  0
   19.0500   -0.7390    8.2610 C   0  0  1  0  0  0  0  0  0  0  0  0
   18.6210    0.4290    9.1380 C   0  0  0  0  0  0  0  0  0  0  0  0
   18.4590   -2.0030    8.7400 N   0  0  0  0  0  0  0  0  0  0  0  0
   19.5780   -1.6580    6.1220 O   0  0  0  0  0  0  0  0  0  0  0  0
   17.0190    1.6950    6.0420 O   0  0  0  0  0  0  0  0  0  0  0  0
   12.7040    0.2280    2.7620 O   0  0  0  0  0  0  0  0  0  0  0  0
    6.5030   -0.9560    0.7680 O   0  0  0  0  0  0  0  0  0  0  0  0
    5.8210   -1.4160    1.8490 C   0  0  0  0  0  0  0  0  0  0  0  0
    5.6120   -2.5820    2.1250 O   0  0  0  0  0  0  0  0  0  0  0  0
    5.4490   -0.2420    2.7120 C   0  0  0  0  0  0  0  0  0  0  0  0
    5.0050   -0.6630    4.1220 C   0  0  1  0  0  0  0  0  0  0  0  0
    6.1620   -1.2190    4.9620 C   0  0  0  0  0  0  0  0  0  0  0  0
    5.6650   -1.7660    6.2800 C   0  0  0  0  0  0  0  0  0  0  0  0
    4.4820   -1.7890    6.6020 O   0  0  0  0  0  0  0  0  0  0  0  0
    6.6450   -2.2290    7.0700 O   0  0  0  0  0  0  0  0  0  0  0  0
    4.4380    0.6020    4.7810 C   0  0  0  0  0  0  0  0  0  0  0  0
    4.8780    1.7210    4.5650 O   0  0  0  0  0  0  0  0  0  0  0  0
    3.4480    0.3740    5.6550 O   0  0  0  0  0  0  0  0  0  0  0  0
    6.2790   -0.7800   -2.1190 O   0  0  0  0  0  0  0  0  0  0  0  0
    5.0260   -0.2130   -2.2820 C   0  0  0  0  0  0  0  0  0  0  0  0
    3.9830   -0.6960   -1.8610 O   0  0  0  0  0  0  0  0  0  0  0  0
    5.0800    1.1090   -3.0590 C   0  0  0  0  0  0  0  0  0  0  0  0
    3.7170    1.8480   -3.2340 C   0  0  1  0  0  0  0  0  0  0  0  0
    2.9810    2.3180   -1.9660 C   0  0  0  0  0  0  0  0  0  0  0  0
    3.7960    3.2630   -1.1310 C   0  0  0  0  0  0  0  0  0  0  0  0
    4.9050    3.6930   -1.4170 O   0  0  0  0  0  0  0  0  0  0  0  0
    3.1660    3.6250   -0.0030 O   0  0  0  0  0  0  0  0  0  0  0  0
    3.7560    3.0370   -4.2020 C   0  0  0  0  0  0  0  0  0  0  0  0
    2.8420    3.3040   -4.9570 O   0  0  0  0  0  0  0  0  0  0  0  0
    4.8340    3.8410   -4.0890 O   0  0  0  0  0  0  0  0  0  0  0  0
    7.5080   -9.2980   -2.4260 H   0  0  0  0  0  0  0  0  0  0  0  0
    8.6660   -8.1720   -3.1520 H   0  0  0  0  0  0  0  0  0  0  0  0
    7.0440   -8.3520   -3.8470 H   0  0  0  0  0  0  0  0  0  0  0  0
    7.6650   -7.2320   -1.0560 H   0  0  0  0  0  0  0  0  0  0  0  0
    6.0490   -7.4230   -1.7400 H   0  0  0  0  0  0  0  0  0  0  0  0
    6.6080   -5.8650   -3.5700 H   0  0  0  0  0  0  0  0  0  0  0  0
    8.2450   -5.6500   -2.9470 H   0  0  0  0  0  0  0  0  0  0  0  0
    7.3380   -4.6920   -0.8310 H   0  0  0  0  0  0  0  0  0  0  0  0
    5.6940   -4.8700   -1.4350 H   0  0  0  0  0  0  0  0  0  0  0  0
    7.8380   -3.0550   -2.7090 H   0  0  0  0  0  0  0  0  0  0  0  0
    4.8910   -3.5160   -3.4260 H   0  0  0  0  0  0  0  0  0  0  0  0
    6.2940   -3.9570   -4.4050 H   0  0  0  0  0  0  0  0  0  0  0  0
    5.9190   -2.2690   -4.1600 H   0  0  0  0  0  0  0  0  0  0  0  0
    5.3620   -2.3390   -1.0840 H   0  0  0  0  0  0  0  0  0  0  0  0
    7.1340   -2.9270    0.4270 H   0  0  0  0  0  0  0  0  0  0  0  0
    8.8530   -0.5190   -0.3670 H   0  0  0  0  0  0  0  0  0  0  0  0
    9.3390   -2.2180   -0.5190 H   0  0  0  0  0  0  0  0  0  0  0  0
    8.7170   -0.7490    2.1620 H   0  0  0  0  0  0  0  0  0  0  0  0
    9.6970   -3.6010    1.6130 H   0  0  0  0  0  0  0  0  0  0  0  0
    8.1540   -3.1350    2.3370 H   0  0  0  0  0  0  0  0  0  0  0  0
    9.6330   -2.8830    3.2320 H   0  0  0  0  0  0  0  0  0  0  0  0
   10.9080   -0.0660    1.1020 H   0  0  0  0  0  0  0  0  0  0  0  0
   11.5150   -1.6870    1.2830 H   0  0  0  0  0  0  0  0  0  0  0  0
   10.8410    0.2470    3.6070 H   0  0  0  0  0  0  0  0  0  0  0  0
   12.6530   -2.2570    3.8090 H   0  0  0  0  0  0  0  0  0  0  0  0
   11.0790   -2.0290    4.5710 H   0  0  0  0  0  0  0  0  0  0  0  0
   12.2750   -1.6370    6.3390 H   0  0  0  0  0  0  0  0  0  0  0  0
   12.2050    0.0290    5.8490 H   0  0  0  0  0  0  0  0  0  0  0  0
   14.6790   -1.7810    5.3590 H   0  0  0  0  0  0  0  0  0  0  0  0
   14.2930   -1.1430    6.9440 H   0  0  0  0  0  0  0  0  0  0  0  0
   14.4320    1.2190    5.9820 H   0  0  0  0  0  0  0  0  0  0  0  0
   15.1860    0.5140    4.5730 H   0  0  0  0  0  0  0  0  0  0  0  0
   16.2110    0.4970    7.4680 H   0  0  0  0  0  0  0  0  0  0  0  0
   17.5570   -0.7270    5.0270 H   0  0  0  0  0  0  0  0  0  0  0  0
   16.9720   -1.6460    6.3880 H   0  0  0  0  0  0  0  0  0  0  0  0
   19.3240    0.3510    6.3950 H   0  0  0  0  0  0  0  0  0  0  0  0
   20.1340   -0.8550    8.4100 H   0  0  0  0  0  0  0  0  0  0  0  0
   17.5360    0.5170    9.2170 H   0  0  0  0  0  0  0  0  0  0  0  0
   19.0280    1.3720    8.7610 H   0  0  0  0  0  0  0  0  0  0  0  0
   19.0090    0.2950   10.1570 H   0  0  0  0  0  0  0  0  0  0  0  0
   17.4440   -1.9130    8.7540 H   0  0  0  0  0  0  0  0  0  0  0  0
   18.7250   -2.1380    9.7180 H   0  0  0  0  0  0  0  0  0  0  0  0
   19.4090   -2.4280    6.7050 H   0  0  0  0  0  0  0  0  0  0  0  0
   17.2910    1.6470    5.1070 H   0  0  0  0  0  0  0  0  0  0  0  0
   13.0730    0.6460    3.5580 H   0  0  0  0  0  0  0  0  0  0  0  0
    4.6390    0.3020    2.1940 H   0  0  0  0  0  0  0  0  0  0  0  0
    6.3180    0.4200    2.7800 H   0  0  0  0  0  0  0  0  0  0  0  0
    4.1930   -1.3860    4.0340 H   0  0  0  0  0  0  0  0  0  0  0  0
    6.9120   -0.4510    5.1640 H   0  0  0  0  0  0  0  0  0  0  0  0
    6.6410   -2.0530    4.4400 H   0  0  0  0  0  0  0  0  0  0  0  0
    7.5450   -2.1690    6.6960 H   0  0  0  0  0  0  0  0  0  0  0  0
    3.3560   -0.5710    5.9330 H   0  0  0  0  0  0  0  0  0  0  0  0
    5.4560    0.8810   -4.0640 H   0  0  0  0  0  0  0  0  0  0  0  0
    5.8150    1.7520   -2.5710 H   0  0  0  0  0  0  0  0  0  0  0  0
    3.0440    1.1350   -3.7320 H   0  0  0  0  0  0  0  0  0  0  0  0
    2.6970    1.4600   -1.3500 H   0  0  0  0  0  0  0  0  0  0  0  0
    2.0610    2.8520   -2.2430 H   0  0  0  0  0  0  0  0  0  0  0  0
    3.7560    4.2580    0.4580 H   0  0  0  0  0  0  0  0  0  0  0  0
    5.3540    3.7320   -3.2620 H   0  0  0  0  0  0  0  0  0  0  0  0
  1  2  1  0  0  0  0
  1 51  1  0  0  0  0
  1 52  1  0  0  0  0
  1 53  1  0  0  0  0
  2  3  1  0  0  0  0
  2 54  1  0  0  0  0
  2 55  1  0  0  0  0
  3  4  1  0  0  0  0
  3 56  1  0  0  0  0
  3 57  1  0  0  0  0
  4  5  1  0  0  0  0
  4 58  1  0  0  0  0
  4 59  1  0  0  0  0
  5  6  1  0  0  0  0
  5  7  1  0  0  0  0
  5 60  1  6  0  0  0
  6 61  1  0  0  0  0
  6 62  1  0  0  0  0
  6 63  1  0  0  0  0
  7  8  1  0  0  0  0
  7 39  1  0  0  0  0
  7 64  1  1  0  0  0
  8  9  1  0  0  0  0
  8 27  1  0  0  0  0
  8 65  1  1  0  0  0
  9 10  1  0  0  0  0
  9 66  1  0  0  0  0
  9 67  1  0  0  0  0
 10 11  1  0  0  0  0
 10 12  1  0  0  0  0
 10 68  1  1  0  0  0
 11 69  1  0  0  0  0
 11 70  1  0  0  0  0
 11 71  1  0  0  0  0
 12 13  1  0  0  0  0
 12 72  1  0  0  0  0
 12 73  1  0  0  0  0
 13 14  1  0  0  0  0
 13 26  1  0  0  0  0
 13 74  1  1  0  0  0
 14 15  1  0  0  0  0
 14 75  1  0  0  0  0
 14 76  1  0  0  0  0
 15 16  1  0  0  0  0
 15 77  1  0  0  0  0
 15 78  1  0  0  0  0
 16 17  1  0  0  0  0
 16 79  1  0  0  0  0
 16 80  1  0  0  0  0
 17 18  1  0  0  0  0
 17 81  1  0  0  0  0
 17 82  1  0  0  0  0
 18 19  1  0  0  0  0
 18 25  1  0  0  0  0
 18 83  1  1  0  0  0
 19 20  1  0  0  0  0
 19 84  1  0  0  0  0
 19 85  1  0  0  0  0
 20 21  1  0  0  0  0
 20 24  1  0  0  0  0
 20 86  1  6  0  0  0
 21 22  1  0  0  0  0
 21 23  1  0  0  0  0
 21 87  1  1  0  0  0
 22 88  1  0  0  0  0
 22 89  1  0  0  0  0
 22 90  1  0  0  0  0
 23 91  1  0  0  0  0
 23 92  1  0  0  0  0
 24 93  1  0  0  0  0
 25 94  1  0  0  0  0
 26 95  1  0  0  0  0
 27 28  1  0  0  0  0
 28 29  2  0  0  0  0
 28 30  1  0  0  0  0
 30 31  1  0  0  0  0
 30 96  1  0  0  0  0
 30 97  1  0  0  0  0
 31 32  1  0  0  0  0
 31 36  1  0  0  0  0
 31 98  1  6  0  0  0
 32 33  1  0  0  0  0
 32 99  1  0  0  0  0
 32100  1  0  0  0  0
 33 34  2  0  0  0  0
 33 35  1  0  0  0  0
 35101  1  0  0  0  0
 36 37  2  0  0  0  0
 36 38  1  0  0  0  0
 38102  1  0  0  0  0
 39 40  1  0  0  0  0
 40 41  2  0  0  0  0
 40 42  1  0  0  0  0
 42 43  1  0  0  0  0
 42103  1  0  0  0  0
 42104  1  0  0  0  0
 43 44  1  0  0  0  0
 43 48  1  0  0  0  0
 43105  1  6  0  0  0
 44 45  1  0  0  0  0
 44106  1  0  0  0  0
 44107  1  0  0  0  0
 45 46  2  0  0  0  0
 45 47  1  0  0  0  0
 47108  1  0  0  0  0
 48 49  2  0  0  0  0
 48 50  1  0  0  0  0
 50109  1  0  0  0  0
M  END
>  <COMPND>
    UNNAMED

>  <AUTHOR>
    GENERATED BY OPEN BABEL 2.4.1

>  <MASTER>
        0    0    0    0    0    0    0    0  109    0  109    0

$$$$
