@<TRIPOS>MOLECULE
dna.pdb
 1946 2176 0 0 0
SMALL
GASTEIGER

@<TRIPOS>ATOM
      1  O5'      -12.0960  -11.5430   -0.3070 O.3     1  DA1        -0.2176
      2  C5'      -11.3170  -12.1410   -1.3380 C.3     1  DA1         0.2140
      3  C4'      -10.2550  -13.0630   -0.7860 C.3     1  DA1         0.1776
      4  O4'       -9.6920  -13.7500   -1.9320 O.3     1  DA1        -0.3326
      5  C3'       -9.1000  -12.3500   -0.0960 C.3     1  DA1         0.1559
      6  O3'       -9.3000  -12.3710    1.3180 O.3     1  DA1        -0.3138
      7  C2'       -7.8680  -13.1590   -0.5060 C.3     1  DA1         0.0865
      8  C1'       -8.2840  -13.7230   -1.8700 C.3     1  DA1         0.2094
      9  N9        -7.9700  -12.9350   -3.1390 N.ar    1  DA1        -0.2714
     10  C8        -8.5160  -11.8940   -3.8440 C.ar    1  DA1         0.1815
     11  N7        -7.6300  -11.1670   -4.4840 N.ar    1  DA1        -0.2193
     12  C5        -6.4210  -11.7720   -4.1780 C.ar    1  DA1         0.1518
     13  C6        -5.0970  -11.4790   -4.5490 C.ar    1  DA1         0.1919
     14  N6        -4.7600  -10.4600   -5.3430 N.pl3   1  DA1        -0.1054
     15  N1        -4.1210  -12.2790   -4.0700 N.ar    1  DA1        -0.2040
     16  C2        -4.4600  -13.3000   -3.2750 C.ar    1  DA1         0.2016
     17  N3        -5.6670  -13.6760   -2.8570 N.ar    1  DA1        -0.2048
     18  C4        -6.6140  -12.8610   -3.3500 C.ar    1  DA1         0.1691
     19  P         -8.5030  -11.2800    2.3300 P.3     2  DT2         0.2141
     20  OP1       -9.1300  -11.5200    3.6490 O.3     2  DT2        -0.4373
     21  OP2       -8.3900   -9.8960    1.8160 O.2     2  DT2        -0.5172
     22  O5'       -7.0470  -11.9080    2.3020 O.3     2  DT2        -0.3114
     23  C5'       -6.8350  -13.2710    2.6880 C.3     2  DT2         0.1811
     24  C4'       -5.3910  -13.6390    2.5000 C.3     2  DT2         0.1746
     25  O4'       -5.1040  -13.7590    1.0820 O.3     2  DT2        -0.3327
     26  C3'       -4.4020  -12.5990    2.9950 C.3     2  DT2         0.1558
     27  O3'       -4.1730  -12.6550    4.3930 O.3     2  DT2        -0.3138
     28  C2'       -3.1650  -12.8960    2.1570 C.3     2  DT2         0.0866
     29  C1'       -3.7940  -13.2800    0.8190 C.3     2  DT2         0.2106
     30  N1        -3.8790  -12.0870   -0.0600 N.ar    2  DT2        -0.2559
     31  C2        -2.7360  -11.7830   -0.7730 C.ar    2  DT2         0.3545
     32  O2        -1.7280  -12.4670   -0.7380 O.2     2  DT2        -0.2443
     33  N3        -2.8130  -10.6410   -1.5340 N.ar    2  DT2        -0.1533
     34  C4        -3.8940   -9.7930   -1.6500 C.ar    2  DT2         0.2804
     35  O4        -3.8120   -8.8040   -2.3760 O.2     2  DT2        -0.2654
     36  C5        -5.0420  -10.1760   -0.8780 C.ar    2  DT2         0.0534
     37  C6        -4.9950  -11.2820   -0.1300 C.ar    2  DT2         0.0824
     38  C7        -6.2700   -9.3160   -0.9370 C.3     2  DT2         0.0377
     39  P         -3.1040  -11.4370    5.0360 P.3     3  DA3         0.2141
     40  OP1       -3.2030  -11.6320    6.5030 O.3     3  DA3        -0.4373
     41  OP2       -3.7800  -10.2810    4.4030 O.2     3  DA3        -0.5172
     42  O5'       -1.5590  -11.3700    4.6580 O.3     3  DA3        -0.3114
     43  C5'       -0.7190  -12.5240    4.8220 C.3     3  DA3         0.1811
     44  C4'        0.5010  -12.4210    3.9390 C.3     3  DA3         0.1746
     45  O4'        0.0930  -12.1580    2.5680 O.3     3  DA3        -0.3327
     46  C3'        1.4650  -11.2820    4.2220 C.3     3  DA3         0.1558
     47  O3'        2.3040  -11.5790    5.3360 O.3     3  DA3        -0.3138
     48  C2'        2.2450  -11.2180    2.9130 C.3     3  DA3         0.0865
     49  C1'        1.1370  -11.4720    1.8920 C.3     3  DA3         0.2094
     50  N9         0.4900  -10.3270    1.2790 N.ar    3  DA3        -0.2714
     51  C8        -0.6910   -9.7440    1.6580 C.ar    3  DA3         0.1815
     52  N7        -1.0330   -8.7140    0.9200 N.ar    3  DA3        -0.2193
     53  C5        -0.0070   -8.6140   -0.0060 C.ar    3  DA3         0.1518
     54  C6         0.2240   -7.7250   -1.0700 C.ar    3  DA3         0.1919
     55  N6        -0.6010   -6.7250   -1.3900 N.pl3   3  DA3        -0.1054
     56  N1         1.3460   -7.9000   -1.8010 N.ar    3  DA3        -0.2040
     57  C2         2.1720   -8.9020   -1.4800 C.ar    3  DA3         0.2016
     58  N3         2.0620   -9.8020   -0.5050 N.ar    3  DA3        -0.2048
     59  C4         0.9390   -9.6000    0.2030 C.ar    3  DA3         0.1691
     60  P          2.9030  -10.4390    6.3540 P.3     4  DC4         0.2141
     61  OP1        3.4970  -11.4820    7.2360 O.3     4  DC4        -0.4373
     62  OP2        1.9980   -9.4220    6.9400 O.2     4  DC4        -0.5172
     63  O5'        4.0940   -9.7070    5.5850 O.3     4  DC4        -0.3114
     64  C5'        5.1860  -10.4640    5.0660 C.3     4  DC4         0.1811
     65  C4'        5.7320   -9.8380    3.8000 C.3     4  DC4         0.1746
     66  O4'        4.6750   -9.6820    2.8160 O.3     4  DC4        -0.3327
     67  C3'        6.3410   -8.4470    3.9040 C.3     4  DC4         0.1558
     68  O3'        7.6890   -8.4920    4.3640 O.3     4  DC4        -0.3138
     69  C2'        6.2750   -7.9370    2.4670 C.3     4  DC4         0.0866
     70  C1'        4.9980   -8.6060    1.9450 C.3     4  DC4         0.2106
     71  N1         3.8830   -7.6660    1.8390 N.ar    4  DC4        -0.2556
     72  C2         3.8080   -6.8170    0.7290 C.ar    4  DC4         0.3531
     73  O2         4.7070   -6.8710   -0.1270 O.2     4  DC4        -0.2443
     74  N3         2.7610   -5.9640    0.6210 N.ar    4  DC4        -0.1739
     75  C4         1.8200   -5.9410    1.5650 C.ar    4  DC4         0.1759
     76  N4         0.8070   -5.0840    1.4160 N.pl3   4  DC4        -0.1070
     77  C5         1.8780   -6.7930    2.6970 C.ar    4  DC4         0.0566
     78  C6         2.9130   -7.6340    2.8000 C.ar    4  DC4         0.0849
     79  P          8.4310   -7.1280    5.0290 P.3     5  DC5         0.2141
     80  OP1        9.6620   -7.2900    5.8410 O.3     5  DC5        -0.4373
     81  OP2        7.3800   -6.1720    5.4660 O.2     5  DC5        -0.5172
     82  O5'        8.8660   -6.7700    3.5420 O.3     5  DC5        -0.3114
     83  C5'        9.9480   -7.4680    2.9090 C.3     5  DC5         0.1811
     84  C4'       10.1250   -6.9810    1.4920 C.3     5  DC5         0.1746
     85  O4'        8.9810   -7.3820    0.6860 O.3     5  DC5        -0.3327
     86  C3'       10.1860   -5.4730    1.3140 C.3     5  DC5         0.1558
     87  O3'       11.4510   -4.9110    1.5980 O.3     5  DC5        -0.3138
     88  C2'        9.7640   -5.3000   -0.1400 C.3     5  DC5         0.0866
     89  C1'        8.6720   -6.3610   -0.2560 C.3     5  DC5         0.2106
     90  N1         7.3220   -5.7530    0.0960 N.ar    5  DC5        -0.2556
     91  C2         6.6390   -5.1370   -0.9590 C.ar    5  DC5         0.3531
     92  O2         7.1210   -5.2030   -2.1030 O.2     5  DC5        -0.2443
     93  N3         5.4780   -4.4890   -0.7040 N.ar    5  DC5        -0.1739
     94  C4         4.9980   -4.4430    0.5390 C.ar    5  DC5         0.1759
     95  N4         3.8500   -3.7920    0.7430 N.pl3   5  DC5        -0.1070
     96  C5         5.6750   -5.0610    1.6220 C.ar    5  DC5         0.0566
     97  C6         6.8210   -5.7000    1.3660 C.ar    5  DC5         0.0849
     98  P         11.5320   -3.3230    2.0850 P.3     6  DA6         0.2141
     99  OP1       12.8000   -3.2180    2.8570 O.3     6  DA6        -0.4373
    100  OP2       10.2460   -2.9350    2.7240 O.2     6  DA6        -0.5172
    101  O5'       11.7000   -2.4830    0.7440 O.3     6  DA6        -0.3114
    102  C5'       12.7880   -2.7440   -0.1290 C.3     6  DA6         0.1811
    103  C4'       12.4930   -2.2300   -1.5170 C.3     6  DA6         0.1746
    104  O4'       11.3400   -2.9150   -2.0820 O.3     6  DA6        -0.3327
    105  C3'       12.0940   -0.7730   -1.6430 C.3     6  DA6         0.1558
    106  O3'       13.2080    0.1040   -1.4950 O.3     6  DA6        -0.3138
    107  C2'       11.5020   -0.7510   -3.0490 C.3     6  DA6         0.0865
    108  C1'       10.7460   -2.0850   -3.0710 C.3     6  DA6         0.2094
    109  N9         9.3430   -1.8860   -2.7300 N.ar    6  DA6        -0.2714
    110  C8         8.6560   -2.2480   -1.6010 C.ar    6  DA6         0.1815
    111  N7         7.3860   -1.9170   -1.6250 N.ar    6  DA6        -0.2193
    112  C5         7.2300   -1.2940   -2.8530 C.ar    6  DA6         0.1518
    113  C6         6.1150   -0.7140   -3.4840 C.ar    6  DA6         0.1919
    114  N6         4.8980   -0.6680   -2.9390 N.pl3   6  DA6        -0.1054
    115  N1         6.2980   -0.1770   -4.7100 N.ar    6  DA6        -0.2040
    116  C2         7.5190   -0.2250   -5.2560 C.ar    6  DA6         0.2016
    117  N3         8.6410   -0.7420   -4.7620 N.ar    6  DA6        -0.2048
    118  C4         8.4260   -1.2670   -3.5440 C.ar    6  DA6         0.1691
    119  P         13.1220    1.3210   -0.5500 P.3     7  DG7         0.2141
    120  OP1       14.3740    2.1350   -0.4960 O.2     7  DG7        -0.5172
    121  OP2       12.3110    0.8560    0.6300 O.3     7  DG7        -0.4373
    122  O5'       12.0740    1.9700   -1.5870 O.3     7  DG7        -0.3114
    123  C5'       12.6460    2.6770   -2.6900 C.3     7  DG7         0.1811
    124  C4'       11.6370    3.0940   -3.7280 C.3     7  DG7         0.1746
    125  O4'       10.7830    1.9750   -4.0010 O.3     7  DG7        -0.3327
    126  C3'       10.6070    4.1090   -3.3270 C.3     7  DG7         0.1558
    127  O3'       11.1240    5.3680   -3.4830 O.3     7  DG7        -0.3138
    128  C2'        9.5320    3.9290   -4.3610 C.3     7  DG7         0.0865
    129  C1'        9.4660    2.4160   -4.2960 C.3     7  DG7         0.2094
    130  N9         8.5440    1.9050   -3.2350 N.ar    7  DG7        -0.2713
    131  C8         8.8660    1.2020   -2.1000 C.ar    7  DG7         0.1816
    132  N7         7.8270    0.8920   -1.3740 N.ar    7  DG7        -0.2173
    133  C5         6.7540    1.4170   -2.0690 C.ar    7  DG7         0.1748
    134  C6         5.3660    1.4010   -1.7750 C.ar    7  DG7         0.3023
    135  O6         4.7960    0.8950   -0.8000 O.2     7  DG7        -0.2633
    136  N1         4.6190    2.0550   -2.7500 N.ar    7  DG7        -0.1709
    137  C2         5.1440    2.6520   -3.8710 C.ar    7  DG7         0.2606
    138  N2         4.2650    3.2340   -4.6980 N.pl3   7  DG7        -0.0859
    139  N3         6.4310    2.6770   -4.1570 N.ar    7  DG7        -0.1918
    140  C4         7.1760    2.0480   -3.2230 C.ar    7  DG7         0.1722
    141  P         10.8450    6.2110   -2.2810 P.3     8  DC8         0.2141
    142  OP1       12.0460    7.0760   -2.2720 O.2     8  DC8        -0.5172
    143  OP2       10.4120    5.5170   -1.0470 O.3     8  DC8        -0.4373
    144  O5'        9.5690    7.0690   -2.7200 O.3     8  DC8        -0.3114
    145  C5'        9.4080    7.3630   -4.1010 C.3     8  DC8         0.1811
    146  C4'        7.9950    7.7750   -4.4240 C.3     8  DC8         0.1746
    147  O4'        7.1640    6.6050   -4.6090 O.3     8  DC8        -0.3327
    148  C3'        7.3010    8.5870   -3.3470 C.3     8  DC8         0.1558
    149  O3'        7.6430    9.9580   -3.4490 O.3     8  DC8        -0.3138
    150  C2'        5.8220    8.2690   -3.5590 C.3     8  DC8         0.0866
    151  C1'        5.8770    6.8330   -4.0810 C.3     8  DC8         0.2106
    152  N1         5.6300    5.8310   -2.9940 N.ar    8  DC8        -0.2556
    153  C2         4.3010    5.4680   -2.7470 C.ar    8  DC8         0.3531
    154  O2         3.4150    5.8870   -3.5110 O.2     8  DC8        -0.2443
    155  N3         4.0210    4.6750   -1.6860 N.ar    8  DC8        -0.1739
    156  C4         5.0050    4.2490   -0.8920 C.ar    8  DC8         0.1759
    157  N4         4.6800    3.4690    0.1420 N.pl3   8  DC8        -0.1070
    158  C5         6.3580    4.6060   -1.1250 C.ar    8  DC8         0.0566
    159  C6         6.6300    5.3890   -2.1740 C.ar    8  DC8         0.0849
    160  P          7.1100   11.1980   -2.3660 P.3     9  DT9         0.2141
    161  OP1        7.8540   12.4670   -2.1700 O.2     9  DT9        -0.5172
    162  OP2        7.2250   10.1100   -1.3510 O.3     9  DT9        -0.4373
    163  O5'        5.5570   11.5310   -2.5250 O.3     9  DT9        -0.3114
    164  C5'        5.0640   12.2370   -3.6680 C.3     9  DT9         0.1811
    165  C4'        3.5600   12.0810   -3.7790 C.3     9  DT9         0.1746
    166  O4'        3.2400   10.7330   -4.2050 O.3     9  DT9        -0.3327
    167  C3'        2.7470   12.2970   -2.5060 C.3     9  DT9         0.1558
    168  O3'        2.4750   13.6920   -2.3210 O.3     9  DT9        -0.3138
    169  C2'        1.4790   11.4900   -2.7920 C.3     9  DT9         0.0866
    170  C1'        2.0440   10.2980   -3.5670 C.3     9  DT9         0.2106
    171  N1         2.3560    9.1340   -2.7170 N.ar    9  DT9        -0.2559
    172  C2         1.3050    8.2910   -2.4100 C.ar    9  DT9         0.3545
    173  O2         0.1750    8.4550   -2.8340 O.2     9  DT9        -0.2443
    174  N3         1.6260    7.2430   -1.5810 N.ar    9  DT9        -0.1533
    175  C4         2.8630    6.9600   -1.0420 C.ar    9  DT9         0.2804
    176  O4         2.9960    5.9790   -0.3140 O.2     9  DT9        -0.2654
    177  C5         3.9010    7.8820   -1.4070 C.ar    9  DT9         0.0534
    178  C6         3.6180    8.9100   -2.2110 C.ar    9  DT9         0.0824
    179  C7         5.2840    7.6600   -0.8700 C.3     9  DT9         0.0377
    180  P          2.1680   14.2870   -0.8250 P.3    10  DT10        0.2141
    181  OP1        2.1190   15.7470   -0.5450 O.2    10  DT10       -0.5172
    182  OP2        3.1480   13.4380   -0.1080 O.3    10  DT10       -0.4373
    183  O5'        0.7310   13.6390   -0.5780 O.3    10  DT10       -0.3114
    184  C5'       -0.4100   14.0650   -1.3380 C.3    10  DT10        0.1811
    185  C4'       -1.5450   13.0720   -1.2020 C.3    10  DT10        0.1746
    186  O4'       -1.0880   11.7520   -1.5970 O.3    10  DT10       -0.3327
    187  C3'       -2.1310   12.8400    0.1830 C.3    10  DT10        0.1558
    188  O3'       -3.0540   13.8760    0.5170 O.3    10  DT10       -0.3138
    189  C2'       -2.8470   11.5100   -0.0140 C.3    10  DT10        0.0866
    190  C1'       -1.8770   10.7720   -0.9420 C.3    10  DT10        0.2106
    191  N1        -0.9360    9.8520   -0.2980 N.ar   10  DT10       -0.2559
    192  C2        -1.3840    8.5980    0.0700 C.ar   10  DT10        0.3545
    193  O2        -2.5410    8.2400   -0.0630 O.2    10  DT10       -0.2443
    194  N3        -0.4240    7.7720    0.6040 N.ar   10  DT10       -0.1533
    195  C4         0.9080    8.0690    0.8020 C.ar   10  DT10        0.2804
    196  O4         1.6500    7.2210    1.2930 O.2    10  DT10       -0.2654
    197  C5         1.2950    9.3900    0.3960 C.ar   10  DT10        0.0534
    198  C6         0.3820   10.2140   -0.1270 C.ar   10  DT10        0.0824
    199  C7         2.7250    9.8080    0.5720 C.3    10  DT10        0.0377
    200  P         -3.4510   14.1470    2.0230 P.3    11  DA11        0.2141
    201  OP1       -4.5340   15.1620    2.0210 O.2    11  DA11       -0.5172
    202  OP2       -2.3890   14.2120    3.0620 O.3    11  DA11       -0.4373
    203  O5'       -4.0980   12.6980    2.1010 O.3    11  DA11       -0.3114
    204  C5'       -5.3650   12.4170    1.5230 C.3    11  DA11        0.1811
    205  C4'       -6.0000   11.2460    2.2270 C.3    11  DA11        0.1746
    206  O4'       -5.2120   10.0650    1.9360 O.3    11  DA11       -0.3327
    207  C3'       -6.0040   11.3260    3.7490 C.3    11  DA11        0.1558
    208  O3'       -7.0980   12.0450    4.3020 O.3    11  DA11       -0.3138
    209  C2'       -6.0180    9.8700    4.1670 C.3    11  DA11        0.0865
    210  C1'       -5.1630    9.2290    3.0790 C.3    11  DA11        0.2094
    211  N9        -3.7750    9.1090    3.4750 N.ar   11  DA11       -0.2714
    212  C8        -2.7390    9.9710    3.2250 C.ar   11  DA11        0.1815
    213  N7        -1.5990    9.5940    3.7530 N.ar   11  DA11       -0.2193
    214  C5        -1.9070    8.4040    4.3930 C.ar   11  DA11        0.1518
    215  C6        -1.1290    7.5040    5.1410 C.ar   11  DA11        0.1919
    216  N6         0.1740    7.6730    5.3790 N.pl3  11  DA11       -0.1054
    217  N1        -1.7430    6.4110    5.6430 N.ar   11  DA11       -0.2040
    218  C2        -3.0490    6.2420    5.4040 C.ar   11  DA11        0.2016
    219  N3        -3.8850    7.0170    4.7160 N.ar   11  DA11       -0.2048
    220  C4        -3.2440    8.0930    4.2310 C.ar   11  DA11        0.1691
    221  P         -6.8780   12.9830    5.7510 P.3    12  DT12        0.2141
    222  OP1       -8.2300   13.5480    5.9080 O.2    12  DT12       -0.5172
    223  OP2       -5.7190   13.6440    6.3850 O.3    12  DT12       -0.4373
    224  O5'       -6.9210   11.4790    6.2550 O.3    12  DT12       -0.3114
    225  C5'       -7.8590   11.1370    7.2480 C.3    12  DT12        0.1811
    226  C4'       -7.4890    9.8130    7.8630 C.3    12  DT12        0.1746
    227  O4'       -6.4670    9.1740    7.0660 O.3    12  DT12       -0.3327
    228  C3'       -6.8360    9.9210    9.2190 C.3    12  DT12        0.1558
    229  O3'       -7.8100   10.1390   10.2030 O.3    12  DT12       -0.3138
    230  C2'       -6.2280    8.5400    9.3250 C.3    12  DT12        0.0866
    231  C1'       -5.6560    8.3940    7.9200 C.3    12  DT12        0.2106
    232  N1        -4.2640    8.9000    7.8630 N.ar   12  DT12       -0.2559
    233  C2        -3.2050    8.0910    8.2290 C.ar   12  DT12        0.3545
    234  O2        -3.3480    7.0420    8.8310 O.2    12  DT12       -0.2443
    235  N3        -1.9650    8.5570    7.8640 N.ar   12  DT12       -0.1533
    236  C4        -1.6840    9.7250    7.1860 C.ar   12  DT12        0.2804
    237  O4        -0.5170   10.0090    6.9280 O.2    12  DT12       -0.2654
    238  C5        -2.8360   10.5100    6.8420 C.ar   12  DT12        0.0534
    239  C6        -4.0530   10.0810    7.1840 C.ar   12  DT12        0.0824
    240  C7        -2.6340   11.7990    6.1030 C.3    12  DT12        0.0377
    241  P         -7.5870   11.1600   10.7750 P.3    13  DT13        0.2141
    242  OP1       -8.7740   11.4870   11.5960 O.3    13  DT13       -0.4373
    243  OP2       -6.8320   12.2290   10.0810 O.2    13  DT13       -0.5172
    244  O5'       -6.5070   10.3510   11.6420 O.3    13  DT13       -0.3114
    245  C5'       -6.9260    9.3530   12.5560 C.3    13  DT13        0.1811
    246  C4'       -5.7460    8.6640   13.2280 C.3    13  DT13        0.1746
    247  O4'       -4.8560    8.0910   12.2370 O.3    13  DT13       -0.3327
    248  C3'       -4.8170    9.5300   14.0660 C.3    13  DT13        0.1558
    249  O3'       -5.3950    9.8220   15.3330 O.3    13  DT13       -0.3138
    250  C2'       -3.6410    8.5700   14.2060 C.3    13  DT13        0.0866
    251  C1'       -3.5600    7.9800   12.7970 C.3    13  DT13        0.2106
    252  N1        -2.7230    8.6380   11.9400 N.ar   13  DT13       -0.2559
    253  C2        -1.3730    8.3410   11.9030 C.ar   13  DT13        0.3545
    254  O2        -0.8680    7.4620   12.5770 O.2    13  DT13       -0.2443
    255  N3        -0.6320    9.1160   11.0430 N.ar   13  DT13       -0.1533
    256  C4        -1.0940   10.1340   10.2360 C.ar   13  DT13        0.2804
    257  O4        -0.3050   10.7410    9.5150 O.2    13  DT13       -0.2654
    258  C5        -2.5050   10.3820   10.3320 C.ar   13  DT13        0.0534
    259  C6        -3.2500    9.6440   11.1600 C.ar   13  DT13        0.0824
    260  C7        -3.1040   11.4710    9.4930 C.3    13  DT13        0.0377
    261  P         -4.8190   11.0830   16.3330 P.3    14  DC14        0.2141
    262  OP1       -5.6880   11.5360   17.4530 O.3    14  DC14       -0.4373
    263  OP2       -4.7760   11.8360   15.0460 O.2    14  DC14       -0.5172
    264  O5'       -3.3270   10.8990   16.9010 O.3    14  DC14       -0.3114
    265  C5'       -3.1320   10.0240   18.0120 C.3    14  DC14        0.1811
    266  C4'       -1.6700    9.7740   18.2970 C.3    14  DC14        0.1746
    267  O4'       -0.9920    9.2580   17.1330 O.3    14  DC14       -0.3327
    268  C3'       -0.9210   11.0360   18.6250 C.3    14  DC14        0.1558
    269  O3'       -1.0190   11.3070   19.9850 O.3    14  DC14       -0.3138
    270  C2'        0.5080   10.6680   18.2720 C.3    14  DC14        0.0866
    271  C1'        0.3180    9.7760   17.0630 C.3    14  DC14        0.2106
    272  N1         0.4730   10.5240   15.7630 N.ar   14  DC14       -0.2556
    273  C2         1.7580   10.6470   15.2220 C.ar   14  DC14        0.3531
    274  O2         2.7180   10.1620   15.8450 O.2    14  DC14       -0.2443
    275  N3         1.9180   11.2910   14.0410 N.ar   14  DC14       -0.1739
    276  C4         0.8590   11.7980   13.4090 C.ar   14  DC14        0.1759
    277  N4         1.0650   12.4240   12.2480 N.pl3  14  DC14       -0.1070
    278  C5        -0.4510   11.6840   13.9400 C.ar   14  DC14        0.0566
    279  C6        -0.6050   11.0470   15.1070 C.ar   14  DC14        0.0849
    280  P         -0.8110   12.4900   20.1010 P.3    15  DA15        0.2141
    281  OP1       -1.0200   12.6790   21.5540 O.3    15  DA15       -0.4373
    282  OP2       -1.5360   13.3370   19.1250 O.2    15  DA15       -0.5172
    283  O5'        0.7460   12.7010   19.7520 O.3    15  DA15       -0.3114
    284  C5'        1.7570   12.2600   20.6520 C.3    15  DA15        0.1811
    285  C4'        3.1670   12.4210   20.1210 C.3    15  DA15        0.1746
    286  O4'        3.2690   11.9350   18.7540 O.3    15  DA15       -0.3327
    287  C3'        3.7150   13.8380   20.0280 C.3    15  DA15        0.1558
    288  O3'        4.1420   14.3860   21.2610 O.3    15  DA15       -0.3138
    289  C2'        4.8570   13.6760   19.0380 C.3    15  DA15        0.0865
    290  C1'        4.2440   12.6860   18.0490 C.3    15  DA15        0.2094
    291  N9         3.6800   13.3680   16.9290 N.ar   15  DA15       -0.2714
    292  C8         2.3510   13.6080   16.6970 C.ar   15  DA15        0.1815
    293  N7         2.1190   14.2740   15.5910 N.ar   15  DA15       -0.2193
    294  C5         3.3810   14.4870   15.0610 C.ar   15  DA15        0.1518
    295  C6         3.8200   15.1370   13.8940 C.ar   15  DA15        0.1919
    296  N6         2.9970   15.7140   13.0150 N.pl3  15  DA15       -0.1054
    297  N1         5.1490   15.1730   13.6590 N.ar   15  DA15       -0.2040
    298  C2         5.9730   14.5930   14.5400 C.ar   15  DA15        0.2016
    299  N3         5.6800   13.9540   15.6690 N.ar   15  DA15       -0.2048
    300  C4         4.3530   13.9360   15.8750 C.ar   15  DA15        0.1691
    301  P          3.8030   15.8720   21.4530 P.3    16  DA16        0.2141
    302  OP1        3.6550   15.9450   22.9330 O.3    16  DA16       -0.4373
    303  OP2        2.6190   16.1100   20.5760 O.2    16  DA16       -0.5172
    304  O5'        4.9380   16.8690   20.9750 O.3    16  DA16       -0.3114
    305  C5'        6.2940   16.4860   21.0700 C.3    16  DA16        0.1811
    306  C4'        7.0370   16.9510   19.8550 C.3    16  DA16        0.1746
    307  O4'        6.4180   16.3750   18.6730 O.3    16  DA16       -0.3327
    308  C3'        6.9760   18.4440   19.5730 C.3    16  DA16        0.1558
    309  O3'        7.8450   19.2350   20.3740 O.3    16  DA16       -0.3138
    310  C2'        7.3190   18.5090   18.0910 C.3    16  DA16        0.0865
    311  C1'        6.6810   17.2220   17.5640 C.3    16  DA16        0.2094
    312  N9         5.5740   17.5670   16.8680 N.ar   16  DA16       -0.2714
    313  C8         4.3140   17.2580   17.3100 C.ar   16  DA16        0.1815
    314  N7         3.3660   17.5600   16.4550 N.ar   16  DA16       -0.2193
    315  C5         4.0490   18.1040   15.3790 C.ar   16  DA16        0.1518
    316  C6         3.6150   18.6210   14.1460 C.ar   16  DA16        0.1919
    317  N6         2.3330   18.6720   13.7760 N.pl3  16  DA16       -0.1054
    318  N1         4.5540   19.0870   13.2960 N.ar   16  DA16       -0.2040
    319  C2         5.8390   19.0340   13.6670 C.ar   16  DA16        0.2016
    320  N3         6.3690   18.5720   14.7970 N.ar   16  DA16       -0.2048
    321  C4         5.4100   18.1170   15.6200 C.ar   16  DA16        0.1691
    322  P          7.3660   20.6710   20.8820 P.3    17  DT17        0.2141
    323  OP1        8.1730   21.0030   22.0790 O.3    17  DT17       -0.4373
    324  OP2        5.9110   20.9510   20.8970 O.2    17  DT17       -0.5172
    325  O5'        7.9970   21.3710   19.5850 O.3    17  DT17       -0.3114
    326  C5'        9.3980   21.2630   19.3440 C.3    17  DT17        0.1811
    327  C4'        9.8140   21.9690   18.0630 C.3    17  DT17        0.1746
    328  O4'        9.3790   21.1960   16.9140 O.3    17  DT17       -0.3327
    329  C3'        9.2000   23.3460   17.8400 C.3    17  DT17        0.1558
    330  O3'        9.9200   24.3660   18.5240 O.3    17  DT17       -0.3138
    331  C2'        9.3310   23.4820   16.3270 C.3    17  DT17        0.0866
    332  C1'        8.9440   22.0730   15.8850 C.3    17  DT17        0.2106
    333  N1         7.4660   21.9380   15.7030 N.ar   17  DT17       -0.2559
    334  C2         6.9610   22.2140   14.4470 C.ar   17  DT17        0.3545
    335  O2         7.6690   22.4760   13.4900 O.2    17  DT17       -0.2443
    336  N3         5.5910   22.1750   14.3490 N.ar   17  DT17       -0.1533
    337  C4         4.6950   21.8930   15.3590 C.ar   17  DT17        0.2804
    338  O4         3.4910   21.8940   15.1170 O.2    17  DT17       -0.2654
    339  C5         5.2960   21.6180   16.6330 C.ar   17  DT17        0.0534
    340  C6         6.6260   21.6490   16.7570 C.ar   17  DT17        0.0824
    341  C7         4.4040   21.3010   17.7960 C.3    17  DT17        0.0377
    342  P          9.1940   25.7060   18.9700 P.3    18  DT18        0.2141
    343  OP1        9.2070   25.8260   20.4480 O.3    18  DT18       -0.4373
    344  OP2        7.9460   25.9930   18.2200 O.2    18  DT18       -0.5172
    345  O5'       10.3600   26.6090   18.3580 O.3    18  DT18       -0.3114
    346  C5'       10.0060   27.5160   17.3320 C.3    18  DT18        0.1811
    347  C4'       10.2730   26.9990   15.9260 C.3    18  DT18        0.1746
    348  O4'        9.7650   25.6640   15.6600 O.3    18  DT18       -0.3327
    349  C3'        9.5300   27.8190   14.8930 C.3    18  DT18        0.1558
    350  O3'       10.1470   29.0660   14.7960 O.3    18  DT18       -0.3138
    351  C2'        9.6320   26.9410   13.6550 C.3    18  DT18        0.0866
    352  C1'        9.3070   25.6000   14.3120 C.3    18  DT18        0.2106
    353  N1         7.6850   25.6350   14.2720 N.ar   18  DT18       -0.2559
    354  C2         6.9330   25.4290   13.1310 C.ar   18  DT18        0.3545
    355  O2         7.3500   25.6600   12.0100 O.2    18  DT18       -0.2443
    356  N3         5.6670   24.9400   13.3490 N.ar   18  DT18       -0.1533
    357  C4         5.0910   24.6440   14.5670 C.ar   18  DT18        0.2804
    358  O4         3.9420   24.2110   14.6030 O.2    18  DT18       -0.2654
    359  C5         5.9350   24.8860   15.7040 C.ar   18  DT18        0.0534
    360  C6         7.1700   25.3600   15.5200 C.ar   18  DT18        0.0824
    361  C7         5.3990   24.5950   17.0740 C.3    18  DT18        0.0377
    362  P          9.2470   30.1660   15.3960 P.3    19  DA19        0.2141
    363  OP1       10.2970   31.1630   15.7190 O.2    19  DA19       -0.5172
    364  OP2        7.8540   30.3300   15.8790 O.3    19  DA19       -0.4373
    365  O5'        9.1100   29.9500   13.8150 O.3    19  DA19       -0.3114
    366  C5'        8.9150   31.0020   12.8890 C.3    19  DA19        0.1811
    367  C4'        8.3310   30.4650   11.6140 C.3    19  DA19        0.1746
    368  O4'        7.8560   29.1120   11.8200 O.3    19  DA19       -0.3327
    369  C3'        7.0900   31.1990   11.1590 C.3    19  DA19        0.1558
    370  O3'        7.3800   32.4090   10.4990 O.3    19  DA19       -0.3138
    371  C2'        6.3710   30.1750   10.3010 C.3    19  DA19        0.0865
    372  C1'        6.6580   28.9060   11.0950 C.3    19  DA19        0.2094
    373  N9         5.5920   28.4870   11.8490 N.ar   19  DA19       -0.2714
    374  C8         5.5870   28.5350   13.2180 C.ar   19  DA19        0.1815
    375  N7         4.4880   28.0640   13.7600 N.ar   19  DA19       -0.2193
    376  C5         3.7200   27.6820   12.6720 C.ar   19  DA19        0.1518
    377  C6         2.4410   27.1060   12.5720 C.ar   19  DA19        0.1919
    378  N6         1.6820   26.8040   13.6290 N.pl3  19  DA19       -0.1054
    379  N1         1.9640   26.8490   11.3360 N.ar   19  DA19       -0.2040
    380  C2         2.7250   27.1520   10.2780 C.ar   19  DA19        0.2016
    381  N3         3.9410   27.6930   10.2440 N.ar   19  DA19       -0.2048
    382  C4         4.3860   27.9370   11.4880 C.ar   19  DA19        0.1691
    383  P          6.5510   33.4880   11.0630 P.3    20  DA20        0.2141
    384  OP1        7.3670   34.5790   10.4880 O.2    20  DA20       -0.5172
    385  OP2        6.3730   33.4090   12.5280 O.3    20  DA20       -0.4373
    386  O5'        5.1070   33.4630   10.3840 O.3    20  DA20       -0.3114
    387  C5'        5.0000   33.5840    8.9910 C.3    20  DA20        0.1811
    388  C4'        4.0530   32.5550    8.4200 C.3    20  DA20        0.1746
    389  O4'        4.2180   31.2870    9.0860 O.3    20  DA20       -0.3327
    390  C3'        2.5890   32.8660    8.6120 C.3    20  DA20        0.1558
    391  O3'        2.1820   33.8270    7.6660 O.3    20  DA20       -0.3138
    392  C2'        1.9960   31.4990    8.3130 C.3    20  DA20        0.0865
    393  C1'        2.9790   30.5950    9.0470 C.3    20  DA20        0.2094
    394  N9         2.4460   30.2890   10.4280 N.ar   20  DA20       -0.2714
    395  C8         3.1390   30.4970   11.5920 C.ar   20  DA20        0.1815
    396  N7         2.5670   29.9690   12.6490 N.ar   20  DA20       -0.2193
    397  C5         1.4210   29.3760   12.1440 C.ar   20  DA20        0.1518
    398  C6         0.3840   28.6500   12.7550 C.ar   20  DA20        0.1919
    399  N6         0.3360   28.3880   14.0640 N.pl3  20  DA20       -0.1054
    400  N1        -0.6140   28.1970   11.9660 N.ar   20  DA20       -0.2040
    401  C2        -0.5650   28.4580   10.6550 C.ar   20  DA20        0.2016
    402  N3         0.3560   29.1280    9.9650 N.ar   20  DA20       -0.2048
    403  C4         1.3320   29.5660   10.7780 C.ar   20  DA20        0.1691
    404  P          1.5100   35.2450    8.1250 P.3    21  DT21        0.2141
    405  OP1        1.5960   36.2470    7.0430 O.2    21  DT21       -0.5172
    406  OP2        2.1140   35.4990    9.4510 O.3    21  DT21       -0.4373
    407  O5'       -0.0260   34.9100    8.4060 O.3    21  DT21       -0.3114
    408  C5'       -0.6860   34.2670    7.3260 C.3    21  DT21        0.1811
    409  C4'       -1.7120   33.2670    7.7800 C.3    21  DT21        0.1746
    410  O4'       -1.0850   32.2050    8.5360 O.3    21  DT21       -0.3327
    411  C3'       -2.7540   33.8000    8.7400 C.3    21  DT21        0.1558
    412  O3'       -3.7360   34.5840    8.1000 O.3    21  DT21       -0.3138
    413  C2'       -3.2970   32.5200    9.3350 C.3    21  DT21        0.0866
    414  C1'       -2.0050   31.7300    9.5010 C.3    21  DT21        0.2106
    415  N1        -1.4410   31.8220   10.7650 N.ar   21  DT21       -0.2559
    416  C2        -2.0040   31.2500   11.8910 C.ar   21  DT21        0.3545
    417  O2        -3.0890   30.6950   11.8820 O.2    21  DT21       -0.2443
    418  N3        -1.2490   31.3520   13.0340 N.ar   21  DT21       -0.1533
    419  C4        -0.0150   31.9540   13.1620 C.ar   21  DT21        0.2804
    420  O4         0.5430   31.9650   14.2560 O.2    21  DT21       -0.2654
    421  C5         0.5020   32.5250   11.9500 C.ar   21  DT21        0.0534
    422  C6        -0.2120   32.4410   10.8240 C.ar   21  DT21        0.0824
    423  C7         1.8390   33.2040   11.9870 C.3    21  DT21        0.0377
    424  P         -4.0310   35.8890    8.7940 P.3    22  DC22        0.2141
    425  OP1       -4.8270   36.5530    7.7220 O.2    22  DC22       -0.5172
    426  OP2       -2.8930   36.6000    9.3940 O.3    22  DC22       -0.4373
    427  O5'       -4.9920   35.4570    9.9910 O.3    22  DC22       -0.3114
    428  C5'       -6.2660   34.8380    9.7290 C.3    22  DC22        0.1811
    429  C4'       -6.8240   34.2290   10.9930 C.3    22  DC22        0.1746
    430  O4'       -5.8830   33.2540   11.5130 O.3    22  DC22       -0.3327
    431  C3'       -7.0490   35.1700   12.1660 C.3    22  DC22        0.1558
    432  O3'       -8.2810   35.8790   12.0120 O.3    22  DC22       -0.3138
    433  C2'       -7.0650   34.1980   13.3410 C.3    22  DC22        0.0866
    434  C1'       -5.9700   33.2110   12.9270 C.3    22  DC22        0.2106
    435  N1        -4.6520   33.5850   13.4660 N.ar   22  DC22       -0.2556
    436  C2        -4.3700   33.2630   14.7990 C.ar   22  DC22        0.3531
    437  O2        -5.2240   32.6460   15.4580 O.2    22  DC22       -0.2443
    438  N3        -3.1800   33.6330   15.3290 N.ar   22  DC22       -0.1739
    439  C4        -2.2940   34.2950   14.5830 C.ar   22  DC22        0.1759
    440  N4        -1.1340   34.6390   15.1480 N.pl3  22  DC22       -0.1070
    441  C5        -2.5610   34.6310   13.2310 C.ar   22  DC22        0.0566
    442  C6        -3.7370   34.2630   12.7110 C.ar   22  DC22        0.0849
    443  P         -8.7770   37.1060   13.1860 P.3    23  DG23        0.2141
    444  OP1      -10.1420   37.3380   12.6590 O.2    23  DG23       -0.5172
    445  OP2       -7.9240   38.2520   13.5830 O.3    23  DG23       -0.4373
    446  O5'       -8.8630   36.1850   14.4930 O.3    23  DG23       -0.3114
    447  C5'       -9.0620   36.7410   15.7840 C.3    23  DG23        0.1811
    448  C4'       -8.7890   35.7370   16.8750 C.3    23  DG23        0.1746
    449  O4'       -7.6200   34.9440   16.5460 O.3    23  DG23       -0.3327
    450  C3'       -8.4360   36.3440   18.2180 C.3    23  DG23        0.1558
    451  O3'       -9.5580   36.7830   18.9470 O.3    23  DG23       -0.3138
    452  C2'       -7.6310   35.2440   18.8870 C.3    23  DG23        0.0865
    453  C1'       -6.8060   34.7800   17.6880 C.3    23  DG23        0.2094
    454  N9        -5.4300   35.7400   17.6350 N.ar   23  DG23       -0.2713
    455  C8        -4.9850   36.3670   16.4970 C.ar   23  DG23        0.1816
    456  N7        -3.7180   36.6740   16.5390 N.ar   23  DG23       -0.2173
    457  C5        -3.2970   36.2220   17.7760 C.ar   23  DG23        0.1748
    458  C6        -2.0200   36.2730   18.3930 C.ar   23  DG23        0.3023
    459  O6        -0.9700   36.7490   17.9410 O.2    23  DG23       -0.2633
    460  N1        -2.0300   35.6980   19.6600 N.ar   23  DG23       -0.1709
    461  C2        -3.1340   35.1420   20.2600 C.ar   23  DG23        0.2606
    462  N2        -2.9480   34.6350   21.4870 N.pl3  23  DG23       -0.0859
    463  N3        -4.3270   35.0870   19.7010 N.ar   23  DG23       -0.1918
    464  C4        -4.3410   35.6410   18.4700 C.ar   23  DG23        0.1722
    465  P         -9.5690   38.3020   18.8720 P.3    24  DC24        0.2141
    466  OP1      -11.0060   37.9750   19.0360 O.3    24  DC24       -0.4373
    467  OP2       -9.1530   39.5130   18.1240 O.2    24  DC24       -0.5172
    468  O5'       -8.9030   38.2650   20.3300 O.3    24  DC24       -0.3114
    469  C5'       -9.1270   37.0760   21.0800 C.3    24  DC24        0.1811
    470  C4'       -8.3470   36.9680   22.3740 C.3    24  DC24        0.1746
    471  O4'       -7.0250   36.4240   22.1260 O.3    24  DC24       -0.3327
    472  C3'       -8.0800   38.2700   23.0920 C.3    24  DC24        0.1558
    473  O3'       -9.1630   38.5940   23.9080 O.3    24  DC24       -0.3138
    474  C2'       -6.8520   37.9060   23.9080 C.3    24  DC24        0.0866
    475  C1'       -6.0550   37.1700   22.8450 C.3    24  DC24        0.2106
    476  N1        -5.2360   38.0750   21.9170 N.ar   24  DC24       -0.2556
    477  C2        -3.9670   38.4580   22.3670 C.ar   24  DC24        0.3531
    478  O2        -3.5770   38.0480   23.4740 O.2    24  DC24       -0.2443
    479  N3        -3.2060   39.2630   21.5880 N.ar   24  DC24       -0.1739
    480  C4        -3.6670   39.6800   20.4080 C.ar   24  DC24        0.1759
    481  N4        -2.8810   40.4720   19.6750 N.pl3  24  DC24       -0.1070
    482  C5        -4.9500   39.3030   19.9340 C.ar   24  DC24        0.0566
    483  C6        -5.6980   38.5080   20.7060 C.ar   24  DC24        0.0849
    484  P         -9.4820   40.0660   24.1100 P.3    25  DA25        0.2141
    485  OP1      -10.7870   40.2720   24.7840 O.3    25  DA25       -0.4373
    486  OP2       -9.2130   40.7290   22.8120 O.2    25  DA25       -0.5172
    487  O5'       -8.2560   40.5400   25.0330 O.3    25  DA25       -0.3114
    488  C5'       -7.6500   39.6780   25.9890 C.3    25  DA25        0.1811
    489  C4'       -6.2880   40.1700   26.4320 C.3    25  DA25        0.1746
    490  O4'       -5.3190   40.0180   25.3610 O.3    25  DA25       -0.3327
    491  C3'       -6.1770   41.6390   26.8080 C.3    25  DA25        0.1558
    492  O3'       -6.6330   41.9130   28.1180 O.3    25  DA25       -0.3138
    493  C2'       -4.6860   41.8960   26.6540 C.3    25  DA25        0.0865
    494  C1'       -4.3480   41.0420   25.4370 C.3    25  DA25        0.2094
    495  N9        -4.2920   41.7290   24.1970 N.ar   25  DA25       -0.2714
    496  C8        -5.2800   41.8020   23.2500 C.ar   25  DA25        0.1815
    497  N7        -4.9150   42.4210   22.1520 N.ar   25  DA25       -0.2193
    498  C5        -3.5980   42.7800   22.3950 C.ar   25  DA25        0.1518
    499  C6        -2.6450   43.4630   21.6190 C.ar   25  DA25        0.1919
    500  N6        -2.8860   43.9240   20.3890 N.pl3  25  DA25       -0.1054
    501  N1        -1.4220   43.6570   22.1570 N.ar   25  DA25       -0.2040
    502  C2        -1.1820   43.1940   23.3890 C.ar   25  DA25        0.2016
    503  N3        -1.9940   42.5380   24.2140 N.ar   25  DA25       -0.2048
    504  C4        -3.2010   42.3610   23.6510 C.ar   25  DA25        0.1691
    505  P         -7.0490   43.3970   28.5490 P.3    26  DT26        0.2141
    506  OP1       -7.2770   43.3580   30.0160 O.3    26  DT26       -0.4373
    507  OP2       -7.8550   44.3210   27.7050 O.2    26  DT26       -0.5172
    508  O5'       -5.4990   43.6920   28.3320 O.3    26  DT26       -0.3114
    509  C5'       -4.5300   43.2110   29.2580 C.3    26  DT26        0.1811
    510  C4'       -3.2350   43.9590   29.0800 C.3    26  DT26        0.1746
    511  O4'       -2.6980   43.6590   27.7660 O.3    26  DT26       -0.3327
    512  C3'       -3.3720   45.4720   29.0800 C.3    26  DT26        0.1558
    513  O3'       -3.3780   46.0110   30.3940 O.3    26  DT26       -0.3138
    514  C2'       -2.1380   45.9060   28.3070 C.3    26  DT26        0.0866
    515  C1'       -2.0530   44.8090   27.2440 C.3    26  DT26        0.2106
    516  N1        -2.6970   45.1770   25.9850 N.ar   26  DT26       -0.2559
    517  C2        -1.9630   45.9440   25.1010 C.ar   26  DT26        0.3545
    518  O2        -0.7950   46.2390   25.2880 O.2    26  DT26       -0.2443
    519  N3        -2.6470   46.3580   23.9840 N.ar   26  DT26       -0.1533
    520  C4        -3.9620   46.0880   23.6690 C.ar   26  DT26        0.2804
    521  O4        -4.4370   46.5300   22.6260 O.2    26  DT26       -0.2654
    522  C5        -4.6570   45.2870   24.6360 C.ar   26  DT26        0.0534
    523  C6        -4.0160   44.8710   25.7320 C.ar   26  DT26        0.0824
    524  C7        -6.0940   44.9390   24.3840 C.3    26  DT26        0.0377
    525  P         -4.0220   47.6110   30.7230 P.3    27  DT27        0.2141
    526  OP1       -4.6190   47.9430   32.0340 O.3    27  DT27       -0.4373
    527  OP2       -4.8900   47.4460   29.5410 O.2    27  DT27       -0.5172
    528  O5'       -3.0330   48.7860   30.2820 O.3    27  DT27       -0.3114
    529  C5'       -2.0970   49.3300   31.1970 C.3    27  DT27        0.1811
    530  C4'       -1.1910   50.3090   30.5030 C.3    27  DT27        0.1746
    531  O4'       -0.6060   49.6790   29.3370 O.3    27  DT27       -0.3327
    532  C3'       -1.8710   51.5530   29.9560 C.3    27  DT27        0.1558
    533  O3'       -2.0320   52.5320   30.9690 O.3    27  DT27       -0.3138
    534  C2'       -0.9470   51.9700   28.8140 C.3    27  DT27        0.0866
    535  C1'       -0.4680   50.6130   28.2870 C.3    27  DT27        0.2106
    536  N1        -1.2530   50.0460   27.0600 N.ar   27  DT27       -0.2559
    537  C2        -0.8650   50.4710   25.8040 C.ar   27  DT27        0.3545
    538  O2         0.0510   51.2540   25.6220 O.2    27  DT27       -0.2443
    539  N3        -1.5900   49.9460   24.7620 N.ar   27  DT27       -0.1533
    540  C4        -2.6430   49.0580   24.8490 C.ar   27  DT27        0.2804
    541  O4        -3.1960   48.6750   23.8210 O.2    27  DT27       -0.2654
    542  C5        -2.9870   48.6650   26.1860 C.ar   27  DT27        0.0534
    543  C6        -2.2970   49.1600   27.2170 C.ar   27  DT27        0.0824
    544  C7        -4.1200   47.7020   26.3850 C.3    27  DT27        0.0377
    545  P         -2.6500   53.9190   30.7840 P.3    28  DA28        0.2141
    546  OP1       -2.7620   55.0450   31.7490 O.3    28  DA28       -0.4373
    547  OP2       -3.9310   53.2980   30.4120 O.2    28  DA28       -0.5172
    548  O5'       -1.9230   54.5690   29.5180 O.3    28  DA28       -0.3114
    549  C5'       -0.8640   55.4890   29.8920 C.3    28  DA28        0.1811
    550  C4'       -0.0710   55.7780   28.6500 C.3    28  DA28        0.1746
    551  O4'        0.2130   54.5750   27.8910 O.3    28  DA28       -0.3327
    552  C3'       -0.8750   56.5900   27.6190 C.3    28  DA28        0.1558
    553  O3'       -1.0170   57.9090   28.0730 O.3    28  DA28       -0.3138
    554  C2'        0.0840   56.4210   26.4430 C.3    28  DA28        0.0865
    555  C1'        0.3430   54.9240   26.5120 C.3    28  DA28        0.2094
    556  N9        -0.4500   54.0240   25.8980 N.ar   28  DA28       -0.2714
    557  C8        -1.4880   53.3350   26.4690 C.ar   28  DA28        0.1815
    558  N7        -2.2930   52.7730   25.5990 N.ar   28  DA28       -0.2193
    559  C5        -1.7470   53.1180   24.3720 C.ar   28  DA28        0.1518
    560  C6        -2.1330   52.8310   23.0510 C.ar   28  DA28        0.1919
    561  N6        -3.2040   52.0990   22.7360 N.pl3  28  DA28       -0.1054
    562  N1        -1.3710   53.3280   22.0540 N.ar   28  DA28       -0.2040
    563  C2        -0.2970   54.0610   22.3700 C.ar   28  DA28        0.2016
    564  N3         0.1670   54.3970   23.5720 N.ar   28  DA28       -0.2048
    565  C4        -0.6130   53.8890   24.5410 C.ar   28  DA28        0.1691
    566  P         -2.0700   58.6890   27.6860 P.3    29  DC29        0.2141
    567  OP1       -2.7950   59.5780   28.6280 O.3    29  DC29       -0.4373
    568  OP2       -2.8170   57.6160   26.9840 O.2    29  DC29       -0.5172
    569  O5'       -1.4010   59.6210   26.5700 O.3    29  DC29       -0.3114
    570  C5'       -2.2190   60.3480   25.6330 C.3    29  DC29        0.1812
    571  C4'       -1.6880   60.1840   24.2190 C.3    29  DC29        0.1775
    572  O4'       -1.3800   58.7820   24.0050 O.3    29  DC29       -0.3326
    573  C3'       -2.6340   60.5480   23.0710 C.3    29  DC29        0.1864
    574  O3'       -2.5900   61.9350   22.7170 O.3    29  DC29       -0.2133
    575  C2'       -2.1100   59.6850   21.9320 C.3    29  DC29        0.0895
    576  C1'       -1.7140   58.4110   22.6780 C.3    29  DC29        0.2107
    577  N1        -2.8110   57.3330   22.8100 N.ar   29  DC29       -0.2556
    578  C2        -3.0300   56.5440   21.6750 C.ar   29  DC29        0.3531
    579  O2        -2.4170   56.8170   20.6290 O.2    29  DC29       -0.2443
    580  N3        -3.9020   55.5100   21.7500 N.ar   29  DC29       -0.1739
    581  C4        -4.5380   55.2550   22.8940 C.ar   29  DC29        0.1759
    582  N4        -5.3880   54.2260   22.9200 N.pl3  29  DC29       -0.1070
    583  C5        -4.3300   56.0430   24.0550 C.ar   29  DC29        0.0566
    584  C6        -3.4680   57.0630   23.9770 C.ar   29  DC29        0.0849
    585  P         -3.5560   62.4830   21.3590 P.3    30  DC30        0.3939
    586  OP1       -3.4160   63.9500   21.1830 O.3    30  DC30       -0.1425
    587  OP2       -3.8970   61.9450   22.7040 O.3    30  DC30       -0.1496
    588  O5'       -4.6720   61.9680   20.3390 O.3    30  DC30       -0.2926
    589  C5'       -4.6910   60.6190   19.8630 C.3    30  DC30        0.1827
    590  C4'       -5.2810   60.5640   18.4760 C.3    30  DC30        0.1726
    591  O4'       -4.6750   61.6090   17.6860 O.3    30  DC30       -0.3511
    592  C3'       -5.0560   59.2790   17.6840 C.3    30  DC30        0.1538
    593  O3'       -6.0910   58.3200   17.9320 O.3    30  DC30       -0.3139
    594  C2'       -5.0850   59.7480   16.2290 C.3    30  DC30        0.0646
    595  C1'       -4.5900   61.1920   16.3410 C.3    30  DC30        0.1449
    596  N1        -2.4660   61.4410   16.7030 N.2    30  DC30       -0.1389
    597  C2        -1.7960   61.6120   15.4860 C.1    30  DC30        0.3500
    598  O2        -2.4400   61.5030   14.4290 O.2    30  DC30       -0.1766
    599  N3        -0.4710   61.8900   15.4970 N.am   30  DC30        0.0897
    600  C4         0.1790   61.9970   16.6560 C.2    30  DC30        0.4204
    601  N4         1.4850   62.2720   16.6170 N.pl3  30  DC30        0.2150
    602  C5        -0.4810   61.8270   17.9000 C.2    30  DC30        0.1183
    603  C6        -1.7900   61.5530   17.8850 C.2    30  DC30        0.1222
    604  P         -5.8200   56.6790   17.6230 P.3    31  DT31        0.2141
    605  OP1       -6.9280   55.7610   17.9880 O.3    31  DT31       -0.4373
    606  OP2       -4.4170   56.2980   17.9450 O.2    31  DT31       -0.5172
    607  O5'       -5.9090   56.9460   16.0560 O.3    31  DT31       -0.3114
    608  C5'       -5.2860   56.0540   15.1370 C.3    31  DT31        0.1811
    609  C4'       -4.9010   56.7810   13.8710 C.3    31  DT31        0.1746
    610  O4'       -4.3370   58.0760   14.2060 O.3    31  DT31       -0.3327
    611  C3'       -3.8160   56.0860   13.0620 C.3    31  DT31        0.1558
    612  O3'       -4.3210   55.0650   12.2080 O.3    31  DT31       -0.3138
    613  C2'       -3.1640   57.2360   12.3110 C.3    31  DT31        0.0866
    614  C1'       -3.2420   58.3590   13.3480 C.3    31  DT31        0.2106
    615  N1        -1.8720   58.1920   14.4020 N.ar   31  DT31       -0.2559
    616  C2        -0.5780   58.3630   13.9500 C.ar   31  DT31        0.3545
    617  O2        -0.2750   58.3210   12.7710 O.2    31  DT31       -0.2443
    618  N3         0.3560   58.5860   14.9330 N.ar   31  DT31       -0.1533
    619  C4         0.1300   58.6530   16.2920 C.ar   31  DT31        0.2804
    620  O4         1.0730   58.8610   17.0530 O.2    31  DT31       -0.2654
    621  C5        -1.2390   58.4640   16.6820 C.ar   31  DT31        0.0534
    622  C6        -2.1670   58.2460   15.7470 C.ar   31  DT31        0.0824
    623  C7        -1.5870   58.5180   18.1400 C.3    31  DT31        0.0377
    624  P         -3.5410   53.7370   12.2330 P.3    32  DT32        0.2141
    625  OP1       -3.1700   53.5420   10.8160 O.2    32  DT32       -0.5172
    626  OP2       -4.4170   52.7680   12.9280 O.3    32  DT32       -0.4373
    627  O5'       -2.2100   53.8860   13.1040 O.3    32  DT32       -0.3114
    628  C5'       -1.2130   54.8350   12.7270 C.3    32  DT32        0.1811
    629  C4'       -0.2090   55.0150   13.8460 C.3    32  DT32        0.1746
    630  O4'       -0.8920   55.4430   15.0460 O.3    32  DT32       -0.3327
    631  C3'        0.4640   53.7330   14.2920 C.3    32  DT32        0.1558
    632  O3'        1.5380   53.4000   13.4350 O.3    32  DT32       -0.3138
    633  C2'        0.9400   54.1010   15.6880 C.3    32  DT32        0.0866
    634  C1'       -0.2220   54.9460   16.1880 C.3    32  DT32        0.2106
    635  N1        -1.1730   54.1640   17.0310 N.ar   32  DT32       -0.2559
    636  C2        -0.9770   54.1410   18.3990 C.ar   32  DT32        0.3545
    637  O2        -0.0400   54.6960   18.9450 O.2    32  DT32       -0.2443
    638  N3        -1.9210   53.4400   19.1090 N.ar   32  DT32       -0.1533
    639  C4        -3.0170   52.7750   18.6010 C.ar   32  DT32        0.2804
    640  O4        -3.7790   52.1900   19.3670 O.2    32  DT32       -0.2654
    641  C5        -3.1510   52.8450   17.1730 C.ar   32  DT32        0.0534
    642  C6        -2.2470   53.5190   16.4580 C.ar   32  DT32        0.0824
    643  C7        -4.3120   52.1520   16.5240 C.3    32  DT32        0.0377
    644  P          1.7210   51.9110   13.1030 P.3    33  DA33        0.2141
    645  OP1        2.2820   51.5610   11.7760 O.2    33  DA33       -0.5172
    646  OP2        0.6240   51.0940   13.6720 O.3    33  DA33       -0.4373
    647  O5'        2.8690   51.8950   14.2240 O.3    33  DA33       -0.3114
    648  C5'        3.4140   50.7220   14.8100 C.3    33  DA33        0.1811
    649  C4'        3.9560   51.0070   16.1900 C.3    33  DA33        0.1746
    650  O4'        3.0060   51.8410   16.8990 O.3    33  DA33       -0.3327
    651  C3'        4.1410   49.8010   17.1010 C.3    33  DA33        0.1558
    652  O3'        5.3640   49.1150   16.9050 O.3    33  DA33       -0.3138
    653  C2'        4.0020   50.3990   18.4940 C.3    33  DA33        0.0865
    654  C1'        2.9250   51.4520   18.2510 C.3    33  DA33        0.2094
    655  N9         1.5040   50.9410   18.6410 N.ar   33  DA33       -0.2714
    656  C8         0.3910   50.7880   17.8550 C.ar   33  DA33        0.1815
    657  N7        -0.6750   50.4050   18.5170 N.ar   33  DA33       -0.2193
    658  C5        -0.2330   50.2980   19.8260 C.ar   33  DA33        0.1518
    659  C6        -0.8850   49.9330   21.0180 C.ar   33  DA33        0.1919
    660  N6        -2.1740   49.5960   21.0810 N.pl3  33  DA33       -0.1054
    661  N1        -0.1550   49.9280   22.1540 N.ar   33  DA33       -0.2040
    662  C2         1.1370   50.2680   22.0890 C.ar   33  DA33        0.2016
    663  N3         1.8590   50.6290   21.0310 N.ar   33  DA33       -0.2048
    664  C4         1.1070   50.6240   19.9180 C.ar   33  DA33        0.1691
    665  P          5.4280   47.5570   17.0230 P.3    34  DT34        0.2141
    666  OP1        6.6200   46.6850   17.0660 O.3    34  DT34       -0.4373
    667  OP2        4.2560   47.0950   16.2550 O.2    34  DT34       -0.5172
    668  O5'        4.9930   47.8740   18.5190 O.3    34  DT34       -0.3114
    669  C5'        5.9810   48.1510   19.4870 C.3    34  DT34        0.1811
    670  C4'        5.4720   47.8110   20.8790 C.3    34  DT34        0.1746
    671  O4'        4.0990   48.2400   21.0400 O.3    34  DT34       -0.3327
    672  C3'        5.3860   46.3320   21.2040 C.3    34  DT34        0.1558
    673  O3'        6.6360   45.8010   21.5710 O.3    34  DT34       -0.3138
    674  C2'        4.5050   46.3920   22.4270 C.3    34  DT34        0.0866
    675  C1'        3.4630   47.3890   21.9680 C.3    34  DT34        0.2106
    676  N1         2.2970   46.8290   21.2380 N.ar   34  DT34       -0.2559
    677  C2         1.3010   46.2330   21.9880 C.ar   34  DT34        0.3545
    678  O2         1.2850   46.2510   23.2060 O.2    34  DT34       -0.2443
    679  N3         0.3180   45.6100   21.2580 N.ar   34  DT34       -0.1533
    680  C4         0.2330   45.5250   19.8840 C.ar   34  DT34        0.2804
    681  O4        -0.7120   44.9310   19.3710 O.2    34  DT34       -0.2654
    682  C5         1.3050   46.1670   19.1760 C.ar   34  DT34        0.0534
    683  C6         2.2730   46.7810   19.8620 C.ar   34  DT34        0.0824
    684  C7         1.3030   46.1290   17.6760 C.3    34  DT34        0.0377
    685  P          6.6820   44.9220   21.2710 P.3    35  DA35        0.2141
    686  OP1        8.1680   44.9220   21.4210 O.3    35  DA35       -0.4373
    687  OP2        6.0260   44.0340   20.2760 O.2    35  DA35       -0.5172
    688  O5'        6.0220   44.5980   22.6730 O.3    35  DA35       -0.3114
    689  C5'        6.7190   43.8670   23.6420 C.3    35  DA35        0.1811
    690  C4'        5.7560   43.0310   24.4180 C.3    35  DA35        0.1746
    691  O4'        4.4300   43.5830   24.2620 O.3    35  DA35       -0.3327
    692  C3'        5.5330   41.6410   23.9020 C.3    35  DA35        0.1558
    693  O3'        6.6090   40.8400   24.2260 O.3    35  DA35       -0.3138
    694  C2'        4.2270   41.2630   24.5570 C.3    35  DA35        0.0865
    695  C1'        3.4620   42.5530   24.3640 C.3    35  DA35        0.2094
    696  N9         2.8080   42.4010   23.2230 N.ar   35  DA35       -0.2714
    697  C8         3.1410   43.0700   22.0750 C.ar   35  DA35        0.1815
    698  N7         2.2600   42.9380   21.1110 N.ar   35  DA35       -0.2193
    699  C5         1.2820   42.1270   21.6650 C.ar   35  DA35        0.1518
    700  C6         0.0760   41.6160   21.1540 C.ar   35  DA35        0.1919
    701  N6        -0.3660   41.8610   19.9180 N.pl3  35  DA35       -0.1054
    702  N1        -0.6680   40.8370   21.9670 N.ar   35  DA35       -0.2040
    703  C2        -0.2250   40.5930   23.2050 C.ar   35  DA35        0.2016
    704  N3         0.8890   41.0160   23.7980 N.ar   35  DA35       -0.2048
    705  C4         1.6060   41.7870   22.9640 C.ar   35  DA35        0.1691
    706  P          7.0690   40.1290   23.2830 P.3    36  DC36        0.2141
    707  OP1        8.5420   40.2230   23.3110 O.3    36  DC36       -0.4373
    708  OP2        6.3280   40.6140   22.1010 O.2    36  DC36       -0.5172
    709  O5'        6.6060   38.6060   23.4470 O.3    36  DC36       -0.3114
    710  C5'        6.8320   37.8700   24.6470 C.3    36  DC36        0.1811
    711  C4'        5.5530   37.1970   25.0930 C.3    36  DC36        0.1746
    712  O4'        4.4450   38.1120   24.8530 O.3    36  DC36       -0.3327
    713  C3'        5.1040   35.9150   24.4000 C.3    36  DC36        0.1558
    714  O3'        5.7760   34.7680   24.9340 O.3    36  DC36       -0.3138
    715  C2'        3.6290   35.8900   24.7790 C.3    36  DC36        0.0866
    716  C1'        3.2540   37.3670   24.6220 C.3    36  DC36        0.2106
    717  N1         2.7970   37.7890   23.2370 N.ar   36  DC36       -0.2556
    718  C2         1.5450   37.3670   22.7760 C.ar   36  DC36        0.3531
    719  O2         0.8810   36.5850   23.4790 O.2    36  DC36       -0.2443
    720  N3         1.0950   37.8190   21.5810 N.ar   36  DC36       -0.1739
    721  C4         1.8420   38.6560   20.8600 C.ar   36  DC36        0.1759
    722  N4         1.3570   39.0760   19.6890 N.pl3  36  DC36       -0.1070
    723  C5         3.1140   39.0960   21.3100 C.ar   36  DC36        0.0566
    724  C6         3.5540   38.6460   22.4900 C.ar   36  DC36        0.0849
    725  P          5.9900   33.3090   24.0130 P.3    37  DC37        0.2141
    726  OP1        7.0060   32.4690   24.7160 O.3    37  DC37       -0.4373
    727  OP2        6.0600   33.4590   22.5440 O.2    37  DC37       -0.5172
    728  O5'        4.5030   32.8760   24.3620 O.3    37  DC37       -0.3114
    729  C5'        4.0000   33.0820   25.6780 C.3    37  DC37        0.1811
    730  C4'        2.5100   33.2780   25.6590 C.3    37  DC37        0.1746
    731  O4'        2.1520   34.5300   25.0130 O.3    37  DC37       -0.3327
    732  C3'        1.7150   32.2700   24.8640 C.3    37  DC37        0.1558
    733  O3'        1.6440   30.9930   25.4520 O.3    37  DC37       -0.3138
    734  C2'        0.3840   32.9800   24.7240 C.3    37  DC37        0.0866
    735  C1'        0.8430   34.4140   24.4770 C.3    37  DC37        0.2106
    736  N1         0.8930   34.5360   22.9660 N.ar   37  DC37       -0.2556
    737  C2        -0.2520   34.6940   22.1770 C.ar   37  DC37        0.3531
    738  O2        -1.3670   34.6050   22.7170 O.2    37  DC37       -0.2443
    739  N3        -0.1110   34.9370   20.8520 N.ar   37  DC37       -0.1739
    740  C4         1.1070   35.0240   20.3150 C.ar   37  DC37        0.1759
    741  N4         1.1960   35.2650   19.0050 N.pl3  37  DC37       -0.1070
    742  C5         2.2790   34.8670   21.0980 C.ar   37  DC37        0.0566
    743  C6         2.1360   34.6270   22.4060 C.ar   37  DC37        0.0849
    744  P          1.8520   29.6430   24.4920 P.3    38  DA38        0.2141
    745  OP1        2.0740   28.8850   25.7480 O.3    38  DA38       -0.4373
    746  OP2        2.7990   29.4790   23.3590 O.2    38  DA38       -0.5172
    747  O5'        0.3920   29.2960   23.9370 O.3    38  DA38       -0.3114
    748  C5'       -0.6920   29.0580   24.8370 C.3    38  DA38        0.1811
    749  C4'       -2.0210   29.2670   24.1460 C.3    38  DA38        0.1746
    750  O4'       -1.9800   30.5450   23.4610 O.3    38  DA38       -0.3327
    751  C3'       -2.4200   28.2600   23.0770 C.3    38  DA38        0.1558
    752  O3'       -3.1570   27.1700   23.6370 O.3    38  DA38       -0.3138
    753  C2'       -3.3230   29.0750   22.1550 C.3    38  DA38        0.0865
    754  C1'       -2.7300   30.4740   22.2660 C.3    38  DA38        0.2094
    755  N9        -1.7980   30.8920   21.2420 N.ar   38  DA38       -0.2714
    756  C8        -0.4470   30.6700   21.1930 C.ar   38  DA38        0.1815
    757  N7         0.1140   31.0640   20.0750 N.ar   38  DA38       -0.2193
    758  C5        -0.9400   31.5800   19.3380 C.ar   38  DA38        0.1518
    759  C6        -1.0070   32.1590   18.0590 C.ar   38  DA38        0.1919
    760  N6         0.0540   32.3210   17.2650 N.pl3  38  DA38       -0.1054
    761  N1        -2.2160   32.5700   17.6190 N.ar   38  DA38       -0.2040
    762  C2        -3.2780   32.4070   18.4160 C.ar   38  DA38        0.2016
    763  N3        -3.3410   31.8790   19.6360 N.ar   38  DA38       -0.2048
    764  C4        -2.1250   31.4800   20.0440 C.ar   38  DA38        0.1691
    765  P         -3.7980   26.0070   22.6720 P.3    39  DG39        0.2141
    766  OP1       -4.6210   25.0620   23.4540 O.3    39  DG39       -0.4373
    767  OP2       -2.5530   25.5200   22.0310 O.2    39  DG39       -0.5172
    768  O5'       -4.7120   26.6880   21.5440 O.3    39  DG39       -0.3114
    769  C5'       -6.1200   26.4880   21.5390 C.3    39  DG39        0.1811
    770  C4'       -6.7910   27.3370   20.4780 C.3    39  DG39        0.1746
    771  O4'       -6.0770   28.5830   20.3170 O.3    39  DG39       -0.3327
    772  C3'       -6.7780   26.7560   19.0770 C.3    39  DG39        0.1558
    773  O3'       -7.8000   25.8230   18.9270 O.3    39  DG39       -0.3138
    774  C2'       -7.0420   27.9920   18.2410 C.3    39  DG39        0.0865
    775  C1'       -6.1460   28.9870   18.9610 C.3    39  DG39        0.2094
    776  N9        -4.7470   28.9540   18.3430 N.ar   39  DG39       -0.2713
    777  C8        -3.6050   28.4920   18.9510 C.ar   39  DG39        0.1816
    778  N7        -2.5300   28.6750   18.2340 N.ar   39  DG39       -0.2173
    779  C5        -2.9850   29.2960   17.0850 C.ar   39  DG39        0.1748
    780  C6        -2.2820   29.7400   15.9360 C.ar   39  DG39        0.3023
    781  O6        -1.0690   29.6680   15.7040 O.2    39  DG39       -0.2633
    782  N1        -3.1320   30.3180   14.9970 N.ar   39  DG39       -0.1709
    783  C2        -4.4920   30.4520   15.1480 C.ar   39  DG39        0.2606
    784  N2        -5.1440   31.0370   14.1340 N.pl3  39  DG39       -0.0859
    785  N3        -5.1580   30.0430   16.2090 N.ar   39  DG39       -0.1918
    786  C4        -4.3530   29.4770   17.1330 C.ar   39  DG39        0.1722
    787  P         -7.3540   24.4640   18.5500 P.3    40  DC40        0.2141
    788  OP1       -8.1870   23.2590   18.8140 O.3    40  DC40       -0.4373
    789  OP2       -5.8750   24.3870   18.7250 O.2    40  DC40       -0.5172
    790  O5'       -7.6940   25.0360   17.1050 O.3    40  DC40       -0.3114
    791  C5'       -9.0220   25.5030   16.7940 C.3    40  DC40        0.1811
    792  C4'       -9.0440   26.1460   15.4240 C.3    40  DC40        0.1746
    793  O4'       -8.3420   27.4230   15.4680 O.3    40  DC40       -0.3327
    794  C3'       -8.2970   25.3230   14.3890 C.3    40  DC40        0.1558
    795  O3'       -9.1030   24.2890   13.8340 O.3    40  DC40       -0.3138
    796  C2'       -7.7870   26.3720   13.4030 C.3    40  DC40        0.0866
    797  C1'       -7.5110   27.5680   14.3250 C.3    40  DC40        0.2106
    798  N1        -6.0930   27.7140   14.8050 N.ar   40  DC40       -0.2556
    799  C2        -5.2080   28.2470   13.8600 C.ar   40  DC40        0.3531
    800  O2        -5.6720   28.7410   12.8180 O.2    40  DC40       -0.2443
    801  N3        -3.8770   28.2090   14.1080 N.ar   40  DC40       -0.1739
    802  C4        -3.4240   27.6680   15.2400 C.ar   40  DC40        0.1759
    803  N4        -2.1040   27.6530   15.4410 N.pl3  40  DC40       -0.1070
    804  C5        -4.3040   27.1230   16.2100 C.ar   40  DC40        0.0566
    805  C6        -5.6180   27.1620   15.9610 C.ar   40  DC40        0.0849
    806  P         -8.3480   23.0770   12.8100 P.3    41  DT41        0.2141
    807  OP1       -9.3470   22.0820   12.3620 O.2    41  DT41       -0.5172
    808  OP2       -7.4160   22.7490   13.9150 O.3    41  DT41       -0.4373
    809  O5'       -7.4600   23.5190   11.5520 O.3    41  DT41       -0.3114
    810  C5'       -8.0740   23.8830   10.3110 C.3    41  DT41        0.1811
    811  C4'       -7.1870   24.8380    9.5290 C.3    41  DT41        0.1746
    812  O4'       -6.7340   25.9140   10.3920 O.3    41  DT41       -0.3327
    813  C3'       -5.9030   24.2430    8.9680 C.3    41  DT41        0.1558
    814  O3'       -6.1560   23.6340    7.7240 O.3    41  DT41       -0.3138
    815  C2'       -5.0850   25.5020    8.7630 C.3    41  DT41        0.0866
    816  C1'       -5.4280   26.2940   10.0230 C.3    41  DT41        0.2106
    817  N1        -4.4830   26.0170   11.1570 N.ar   41  DT41       -0.2559
    818  C2        -3.2310   26.5990   11.1090 C.ar   41  DT41        0.3545
    819  O2        -2.8040   27.1760   10.1250 O.2    41  DT41       -0.2443
    820  N3        -2.4900   26.4800   12.2600 N.ar   41  DT41       -0.1533
    821  C4        -2.8680   25.8520   13.4290 C.ar   41  DT41        0.2804
    822  O4        -2.0920   25.8280   14.3810 O.2    41  DT41       -0.2654
    823  C5        -4.1810   25.2720   13.4000 C.ar   41  DT41        0.0534
    824  C6        -4.9220   25.3730   12.2930 C.ar   41  DT41        0.0824
    825  C7        -4.6840   24.5650   14.6240 C.3    41  DT41        0.0377
    826  P         -5.2540   22.6330    7.2270 P.3    42  DT42        0.2141
    827  OP1       -5.5650   22.0060    5.9080 O.2    42  DT42       -0.5172
    828  OP2       -4.9590   21.7700    8.3990 O.3    42  DT42       -0.4373
    829  O5'       -4.0130   23.6260    7.0530 O.3    42  DT42       -0.3114
    830  C5'       -4.0570   24.7310    6.1130 C.3    42  DT42        0.1811
    831  C4'       -2.7610   25.5190    6.1490 C.3    42  DT42        0.1746
    832  O4'       -2.6190   26.1870    7.4290 O.3    42  DT42       -0.3327
    833  C3'       -1.4840   24.7090    5.9900 C.3    42  DT42        0.1558
    834  O3'       -1.1720   24.4670    4.6250 O.3    42  DT42       -0.3138
    835  C2'       -0.4420   25.5910    6.6640 C.3    42  DT42        0.0866
    836  C1'       -1.2510   26.2270    7.7960 C.3    42  DT42        0.2106
    837  N1        -1.0680   25.4790    9.0680 N.ar   42  DT42       -0.2559
    838  C2        -0.0040   25.8370    9.8750 C.ar   42  DT42        0.3545
    839  O2         0.7930   26.7080    9.5760 O.2    42  DT42       -0.2443
    840  N3         0.0950   25.1330   11.0510 N.ar   42  DT42       -0.1533
    841  C4        -0.7440   24.1310   11.4910 C.ar   42  DT42        0.2804
    842  O4        -0.5260   23.5910   12.5730 O.2    42  DT42       -0.2654
    843  C5        -1.8230   23.8170   10.5970 C.ar   42  DT42        0.0534
    844  C6        -1.9430   24.4850    9.4470 C.ar   42  DT42        0.0824
    845  C7        -2.7910   22.7390   10.9860 C.3    42  DT42        0.0377
    846  P         -0.0770   23.2750    4.2170 P.3    43  DA43        0.2141
    847  OP1       -0.0490   23.0090    2.7600 O.2    43  DA43       -0.5172
    848  OP2       -0.2780   22.1620    5.1730 O.3    43  DA43       -0.4373
    849  O5'        1.2620   24.0470    4.6150 O.3    43  DA43       -0.3114
    850  C5'        2.3200   24.2480    3.6840 C.3    43  DA43        0.1811
    851  C4'        3.5070   24.8700    4.3990 C.3    43  DA43        0.1746
    852  O4'        3.0550   25.6150    5.5630 O.3    43  DA43       -0.3327
    853  C3'        4.5030   23.8700    4.9590 C.3    43  DA43        0.1558
    854  O3'        5.3640   23.3960    3.9120 O.3    43  DA43       -0.3138
    855  C2'        5.1760   24.7140    6.0440 C.3    43  DA43        0.0865
    856  C1'        3.9750   25.4490    6.6300 C.3    43  DA43        0.2094
    857  N9         3.2650   24.7610    7.8450 N.ar   43  DA43       -0.2714
    858  C8         1.9160   24.5780    8.0050 C.ar   43  DA43        0.1815
    859  N7         1.5790   24.1390    9.1950 N.ar   43  DA43       -0.2193
    860  C5         2.7890   24.0250    9.8610 C.ar   43  DA43        0.1518
    861  C6         3.1150   23.6100   11.1640 C.ar   43  DA43        0.1919
    862  N6         2.2100   23.2190   12.0640 N.pl3  43  DA43       -0.1054
    863  N1         4.4190   23.6120   11.5140 N.ar   43  DA43       -0.2040
    864  C2         5.3250   24.0060   10.6110 C.ar   43  DA43        0.2016
    865  N3         5.1410   24.4170    9.3590 N.ar   43  DA43       -0.2048
    866  C4         3.8360   24.4030    9.0420 C.ar   43  DA43        0.1691
    867  P          5.6620   21.8890    3.6960 P.3    44  DT44        0.2141
    868  OP1        6.2020   21.5530    2.3560 O.2    44  DT44       -0.5172
    869  OP2        4.2450   21.6020    4.0460 O.3    44  DT44       -0.4373
    870  O5'        6.6170   21.2510    4.8090 O.3    44  DT44       -0.3114
    871  C5'        7.9620   21.7230    4.8770 C.3    44  DT44        0.1811
    872  C4'        8.5670   21.5190    6.2500 C.3    44  DT44        0.1746
    873  O4'        7.7750   22.1550    7.2800 O.3    44  DT44       -0.3327
    874  C3'        8.5880   20.0830    6.7250 C.3    44  DT44        0.1558
    875  O3'        9.5410   19.3410    6.0220 O.3    44  DT44       -0.3138
    876  C2'        8.9670   20.3200    8.1760 C.3    44  DT44        0.0866
    877  C1'        8.0260   21.4790    8.5010 C.3    44  DT44        0.2106
    878  N1         6.6730   20.9800    8.9730 N.ar   44  DT44       -0.2559
    879  C2         6.4690   20.5430   10.2680 C.ar   44  DT44        0.3545
    880  O2         7.3710   20.4180   11.0770 O.2    44  DT44       -0.2443
    881  N3         5.1630   20.2550   10.5850 N.ar   44  DT44       -0.1533
    882  C4         4.0660   20.3580    9.7560 C.ar   44  DT44        0.2804
    883  O4         2.9530   20.0630   10.1850 O.2    44  DT44       -0.2654
    884  C5         4.3600   20.8170    8.4270 C.ar   44  DT44        0.0534
    885  C6         5.6210   21.1050    8.0930 C.ar   44  DT44        0.0824
    886  C7         3.2320   20.9610    7.4480 C.3    44  DT44        0.0377
    887  P          9.1130   17.8830    5.7370 P.3    45  DT45        0.2141
    888  OP1        9.7870   18.1870    4.4470 O.2    45  DT45       -0.5172
    889  OP2        7.7270   17.3320    5.7390 O.3    45  DT45       -0.4373
    890  O5'       10.0750   16.9090    6.5410 O.3    45  DT45       -0.3114
    891  C5'       11.1370   17.4260    7.3250 C.3    45  DT45        0.1811
    892  C4'       11.0010   16.9350    8.7420 C.3    45  DT45        0.1746
    893  O4'        9.8190   17.4960    9.3760 O.3    45  DT45       -0.3327
    894  C3'       10.6910   15.4590    8.9000 C.3    45  DT45        0.1558
    895  O3'       11.7560   14.5950    8.5390 O.3    45  DT45       -0.3138
    896  C2'       10.2780   15.3890   10.3680 C.3    45  DT45        0.0866
    897  C1'        9.5310   16.7180   10.5310 C.3    45  DT45        0.2106
    898  N1         8.2050   16.7250   10.5370 N.ar   45  DT45       -0.2559
    899  C2         7.4740   16.2200   11.5950 C.ar   45  DT45        0.3545
    900  O2         7.9830   15.8560   12.6410 O.2    45  DT45       -0.2443
    901  N3         6.1170   16.1530   11.3860 N.ar   45  DT45       -0.1533
    902  C4         5.4340   16.5330   10.2490 C.ar   45  DT45        0.2804
    903  O4         4.2120   16.4140   10.2100 O.2    45  DT45       -0.2654
    904  C5         6.2630   17.0460    9.1950 C.ar   45  DT45        0.0534
    905  C6         7.5850   17.1220    9.3720 C.ar   45  DT45        0.0824
    906  C7         5.6130   17.4850    7.9160 C.3    45  DT45        0.0377
    907  P         11.4650   12.7120    8.1370 P.3    46  DC46        0.2141
    908  OP1       12.6190   11.9780    7.5680 O.3    46  DC46       -0.4373
    909  OP2       10.1180   12.6300    7.5280 O.2    46  DC46       -0.5172
    910  O5'       11.2100   12.2390    9.6380 O.3    46  DC46       -0.3114
    911  C5'       12.2690   11.8130   10.4770 C.3    46  DC46        0.1811
    912  C4'       11.6950   11.1010   11.6690 C.3    46  DC46        0.1746
    913  O4'       10.8480   12.0310   12.3870 O.3    46  DC46       -0.3327
    914  C3'       10.7800    9.9360   11.3310 C.3    46  DC46        0.1558
    915  O3'       11.4840    8.7230   11.1310 O.3    46  DC46       -0.3138
    916  C2'        9.8340    9.8900   12.5170 C.3    46  DC46        0.0866
    917  C1'        9.7010   11.3710   12.8690 C.3    46  DC46        0.2106
    918  N1         8.5410   12.0300   12.2160 N.ar   46  DC46       -0.2556
    919  C2         7.3030   11.9310   12.8610 C.ar   46  DC46        0.3531
    920  O2         7.2520   11.3840   13.9760 O.2    46  DC46       -0.2443
    921  N3         6.2010   12.4300   12.2530 N.ar   46  DC46       -0.1739
    922  C4         6.3030   13.0080   11.0550 C.ar   46  DC46        0.1759
    923  N4         5.1890   13.4850   10.4950 N.pl3  46  DC46       -0.1070
    924  C5         7.5480   13.1190   10.3850 C.ar   46  DC46        0.0566
    925  C6         8.6340   12.6240   10.9890 C.ar   46  DC46        0.0849
    926  P         10.9170    7.5690    9.9660 P.3    47  DA47        0.2141
    927  OP1       12.2050    6.8760    9.7610 O.3    47  DA47       -0.4373
    928  OP2       10.2710    8.2780    8.8380 O.2    47  DA47       -0.5172
    929  O5'        9.8360    6.4810   10.4190 O.3    47  DA47       -0.3114
    930  C5'       10.1450    5.6340   11.5160 C.3    47  DA47        0.1811
    931  C4'        8.9240    5.2950   12.3350 C.3    47  DA47        0.1746
    932  O4'        8.2310    6.5060   12.7350 O.3    47  DA47       -0.3327
    933  C3'        7.8310    4.5130   11.6270 C.3    47  DA47        0.1558
    934  O3'        8.1370    3.1440   11.4280 O.3    47  DA47       -0.3138
    935  C2'        6.6350    4.7730   12.5370 C.3    47  DA47        0.0865
    936  C1'        6.8440    6.2560   12.8240 C.3    47  DA47        0.2094
    937  N9         6.1710    7.1450   11.8720 N.ar   47  DA47       -0.2714
    938  C8         6.7670    7.8520   10.8600 C.ar   47  DA47        0.1815
    939  N7         5.9470    8.6500   10.2180 N.ar   47  DA47       -0.2193
    940  C5         4.7300    8.4530   10.8510 C.ar   47  DA47        0.1518
    941  C6         3.4550    9.0080   10.6420 C.ar   47  DA47        0.1919
    942  N6         3.1880    9.9120    9.6960 N.pl3  47  DA47       -0.1054
    943  N1         2.4530    8.5960   11.4480 N.ar   47  DA47       -0.2040
    944  C2         2.7220    7.6910   12.3960 C.ar   47  DA47        0.2016
    945  N3         3.8770    7.0990   12.6890 N.ar   47  DA47       -0.2048
    946  C4         4.8520    7.5290   11.8710 C.ar   47  DA47        0.1691
    947  P          8.1910    2.6400    9.9680 P.3    48  DA48        0.2141
    948  OP1        8.9180    1.3510    9.9220 O.3    48  DA48       -0.4373
    949  OP2        8.1990    3.5490    8.7970 O.2    48  DA48       -0.5172
    950  O5'        6.6510    2.3490   10.2960 O.3    48  DA48       -0.3114
    951  C5'        6.3080    1.2690   11.1280 C.3    48  DA48        0.1811
    952  C4'        4.8570    1.4030   11.5140 C.3    48  DA48        0.1746
    953  O4'        4.5630    2.7880   11.7730 O.3    48  DA48       -0.3327
    954  C3'        3.9080    1.0730   10.3920 C.3    48  DA48        0.1558
    955  O3'        3.7630   -0.3160   10.3540 O.3    48  DA48       -0.3138
    956  C2'        2.6390    1.7630   10.8690 C.3    48  DA48        0.0865
    957  C1'        3.2230    3.0580   11.3920 C.3    48  DA48        0.2094
    958  N9         3.2230    4.1150   10.4390 N.ar   48  DA48       -0.2714
    959  C8         4.3170    4.5670    9.7480 C.ar   48  DA48        0.1815
    960  N7         4.0810    5.6370    9.0260 N.ar   48  DA48       -0.2193
    961  C5         2.7410    5.9050    9.2580 C.ar   48  DA48        0.1518
    962  C6         1.8820    6.9120    8.7840 C.ar   48  DA48        0.1919
    963  N6         2.2650    7.8750    7.9430 N.pl3  48  DA48       -0.1054
    964  N1         0.6010    6.8940    9.2090 N.ar   48  DA48       -0.2040
    965  C2         0.2180    5.9280   10.0520 C.ar   48  DA48        0.2016
    966  N3         0.9310    4.9300   10.5680 N.ar   48  DA48       -0.2048
    967  C4         2.1990    4.9760   10.1250 C.ar   48  DA48        0.1691
    968  P          3.5960   -1.0330    8.9400 P.3    49  DT49        0.2141
    969  OP1        3.8170   -2.4950    9.0620 O.3    49  DT49       -0.4373
    970  OP2        4.3040   -0.2770    7.8800 O.2    49  DT49       -0.5172
    971  O5'        2.0410   -0.8010    8.7180 O.3    49  DT49       -0.3114
    972  C5'        1.1010   -1.2260    9.6930 C.3    49  DT49        0.1811
    973  C4'       -0.2760   -0.6980    9.3580 C.3    49  DT49        0.1746
    974  O4'       -0.3610    0.7230    9.6450 O.3    49  DT49       -0.3327
    975  C3'       -0.7070   -0.8030    7.9050 C.3    49  DT49        0.1558
    976  O3'       -1.1530   -2.1250    7.6400 O.3    49  DT49       -0.3138
    977  C2'       -1.8320    0.2240    7.8530 C.3    49  DT49        0.0866
    978  C1'       -1.2520    1.3380    8.7250 C.3    49  DT49        0.2106
    979  N1        -0.5390    2.3670    7.9460 N.ar   49  DT49       -0.2559
    980  C2        -1.3270    3.2890    7.2830 C.ar   49  DT49        0.3545
    981  O2        -2.5420    3.3090    7.3710 O.2    49  DT49       -0.2443
    982  N3        -0.6390    4.1910    6.5090 N.ar   49  DT49       -0.1533
    983  C4         0.7280    4.2630    6.3340 C.ar   49  DT49        0.2804
    984  O4         1.2000    5.1320    5.6060 O.2    49  DT49       -0.2654
    985  C5         1.4770    3.2720    7.0540 C.ar   49  DT49        0.0534
    986  C6         0.8330    2.3820    7.8140 C.ar   49  DT49        0.0824
    987  C7         2.9720    3.2670    6.9280 C.3    49  DT49        0.0377
    988  P         -1.0210   -2.7660    6.1210 P.3    50  DT50        0.2141
    989  OP1       -1.4770   -4.1890    6.1710 O.3    50  DT50       -0.4373
    990  OP2        0.4190   -2.5030    5.8640 O.2    50  DT50       -0.5172
    991  O5'       -1.9050   -1.9240    5.0590 O.3    50  DT50       -0.3114
    992  C5'       -3.2650   -2.2770    4.8680 C.3    50  DT50        0.1811
    993  C4'       -4.1240   -1.1480    4.3420 C.3    50  DT50        0.1746
    994  O4'       -3.7040    0.1470    4.8180 O.3    50  DT50       -0.3327
    995  C3'       -4.0140   -1.0070    2.8510 C.3    50  DT50        0.1558
    996  O3'       -4.8280   -1.9080    2.2300 O.3    50  DT50       -0.3138
    997  C2'       -4.4780    0.4100    2.5500 C.3    50  DT50        0.0866
    998  C1'       -4.0090    1.1130    3.8190 C.3    50  DT50        0.2106
    999  N1        -2.7320    1.8970    3.6710 N.ar   50  DT50       -0.2559
   1000  C2        -2.8250    3.1740    3.1520 C.ar   50  DT50        0.3545
   1001  O2        -3.8760    3.6650    2.7810 O.2    50  DT50       -0.2443
   1002  N3        -1.6370    3.8600    3.0810 N.ar   50  DT50       -0.1533
   1003  C4        -0.3930    3.4070    3.4680 C.ar   50  DT50        0.2804
   1004  O4         0.5840    4.1420    3.3440 O.2    50  DT50       -0.2654
   1005  C5        -0.3790    2.0720    3.9960 C.ar   50  DT50        0.0534
   1006  C6        -1.5200    1.3820    4.0760 C.ar   50  DT50        0.0824
   1007  C7         0.9280    1.4880    4.4450 C.3    50  DT50        0.0377
   1008  P         -4.3400   -2.2040    0.7360 P.3    51  DA51        0.2141
   1009  OP1       -5.1950   -3.3050    0.2230 O.2    51  DA51       -0.5172
   1010  OP2       -2.8660   -2.3910    0.8060 O.3    51  DA51       -0.4373
   1011  O5'       -4.5970   -0.8820   -0.1010 O.3    51  DA51       -0.3114
   1012  C5'       -5.8110   -0.1570    0.0510 C.3    51  DA51        0.1811
   1013  C4'       -5.7760    1.0420   -0.8360 C.3    51  DA51        0.1746
   1014  O4'       -5.0390    2.0960   -0.1770 O.3    51  DA51       -0.3327
   1015  C3'       -5.0170    0.7660   -2.1140 C.3    51  DA51        0.1558
   1016  O3'       -5.8390    0.1440   -3.0970 O.3    51  DA51       -0.3138
   1017  C2'       -4.4890    2.1360   -2.5000 C.3    51  DA51        0.0865
   1018  C1'       -4.2590    2.7820   -1.1270 C.3    51  DA51        0.2094
   1019  N9        -3.0140    2.7990   -0.6640 N.ar   51  DA51       -0.2714
   1020  C8        -2.3180    1.8290    0.0090 C.ar   51  DA51        0.1815
   1021  N7        -1.0320    2.0700    0.1040 N.ar   51  DA51       -0.2193
   1022  C5        -0.8720    3.2800   -0.5530 C.ar   51  DA51        0.1518
   1023  C6         0.2570    4.0790   -0.8020 C.ar   51  DA51        0.1919
   1024  N6         1.4900    3.7630   -0.4000 N.pl3  51  DA51       -0.1054
   1025  N1         0.0730    5.2280   -1.4870 N.ar   51  DA51       -0.2040
   1026  C2        -1.1630    5.5450   -1.8890 C.ar   51  DA51        0.2016
   1027  N3        -2.3010    4.8770   -1.7150 N.ar   51  DA51       -0.2048
   1028  C4        -2.0840    3.7400   -1.0320 C.ar   51  DA51        0.1691
   1029  P         -5.1210   -0.7040   -4.3980 P.3    52  DC52        0.2141
   1030  OP1       -6.0690   -1.1140   -5.4670 O.2    52  DC52       -0.5172
   1031  OP2       -4.4410   -1.7410   -3.5870 O.3    52  DC52       -0.4373
   1032  O5'       -4.0160    0.2540   -5.0350 O.3    52  DC52       -0.3114
   1033  C5'       -4.3860    1.2570   -6.0010 C.3    52  DC52        0.1811
   1034  C4'       -3.1580    1.9110   -6.5900 C.3    52  DC52        0.1746
   1035  O4'       -2.5030    2.7460   -5.6010 O.3    52  DC52       -0.3327
   1036  C3'       -2.0510    0.9810   -7.0480 C.3    52  DC52        0.1558
   1037  O3'       -2.3360    0.3990   -8.3060 O.3    52  DC52       -0.3138
   1038  C2'       -0.8640    1.9280   -7.1120 C.3    52  DC52        0.0866
   1039  C1'       -1.1090    2.7870   -5.8710 C.3    52  DC52        0.2106
   1040  N1        -0.4000    2.2470   -4.6400 N.ar   52  DC52       -0.2556
   1041  C2         0.9910    2.2880   -4.4910 C.ar   52  DC52        0.3531
   1042  O2         1.6850    2.6400   -5.4600 O.2    52  DC52       -0.2443
   1043  N3         1.5370    1.9440   -3.3000 N.ar   52  DC52       -0.1739
   1044  C4         0.7520    1.5720   -2.2880 C.ar   52  DC52        0.1759
   1045  N4         1.3360    1.2420   -1.1340 N.pl3  52  DC52       -0.1070
   1046  C5        -0.6590    1.5240   -2.4190 C.ar   52  DC52        0.0566
   1047  C6        -1.1950    1.8640   -3.5960 C.ar   52  DC52        0.0849
   1048  P         -1.9610   -1.1840   -8.5640 P.3    53  DG53        0.2141
   1049  OP1       -2.4970   -1.5250   -9.9010 O.2    53  DG53       -0.5172
   1050  OP2       -2.5230   -1.8500   -7.3660 O.3    53  DG53       -0.4373
   1051  O5'       -0.3790   -1.4570   -8.5000 O.3    53  DG53       -0.3114
   1052  C5'        0.5200   -0.5600   -9.1430 C.3    53  DG53        0.1811
   1053  C4'        1.9360   -0.6400   -8.6120 C.3    53  DG53        0.1746
   1054  O4'        2.0380   -0.0700   -7.2790 O.3    53  DG53       -0.3327
   1055  C3'        2.5190   -2.0310   -8.4400 C.3    53  DG53        0.1558
   1056  O3'        2.9250   -2.6250   -9.6590 O.3    53  DG53       -0.3138
   1057  C2'        3.6550   -1.7870   -7.4540 C.3    53  DG53        0.0865
   1058  C1'        2.9900   -0.7870   -6.5180 C.3    53  DG53        0.2094
   1059  N9         2.1980   -1.5700   -5.3770 N.ar   53  DG53       -0.2713
   1060  C8         0.8470   -1.5230   -5.1310 C.ar   53  DG53        0.1816
   1061  N7         0.4970   -2.1710   -4.0540 N.ar   53  DG53       -0.2173
   1062  C5         1.6840   -2.6750   -3.5550 C.ar   53  DG53        0.1748
   1063  C6         1.9410   -3.4650   -2.4050 C.ar   53  DG53        0.3023
   1064  O6         1.1320   -3.8880   -1.5700 O.2    53  DG53       -0.2633
   1065  N1         3.2940   -3.7600   -2.2680 N.ar   53  DG53       -0.1709
   1066  C2         4.2790   -3.3460   -3.1320 C.ar   53  DG53        0.2606
   1067  N2         5.5280   -3.7290   -2.8340 N.pl3  53  DG53       -0.0859
   1068  N3         4.0560   -2.6120   -4.2050 N.ar   53  DG53       -0.1918
   1069  C4         2.7480   -2.3140   -4.3590 C.ar   53  DG53        0.1722
   1070  P          2.3900   -3.6910   -9.8020 P.3    54  DT54        0.2141
   1071  OP1        2.6810   -4.0270  -11.2170 O.2    54  DT54       -0.5172
   1072  OP2        1.0710   -4.0030   -9.2000 O.3    54  DT54       -0.4373
   1073  O5'        3.4340   -4.4600   -8.8660 O.3    54  DT54       -0.3114
   1074  C5'        4.8370   -4.3160   -9.0220 C.3    54  DT54        0.1811
   1075  C4'        5.5470   -4.9370   -7.8470 C.3    54  DT54        0.1746
   1076  O4'        4.9460   -4.4180   -6.6370 O.3    54  DT54       -0.3327
   1077  C3'        5.4200   -6.4510   -7.7210 C.3    54  DT54        0.1558
   1078  O3'        6.4020   -7.1510   -8.4750 O.3    54  DT54       -0.3138
   1079  C2'        5.5150   -6.6870   -6.2160 C.3    54  DT54        0.0866
   1080  C1'        4.8710   -5.4220   -5.6510 C.3    54  DT54        0.2106
   1081  N1         3.5160   -5.6000   -5.2930 N.ar   54  DT54       -0.2559
   1082  C2         3.2130   -6.2890   -4.1340 C.ar   54  DT54        0.3545
   1083  O2         4.0600   -6.8100   -3.4300 O.2    54  DT54       -0.2443
   1084  N3         1.8750   -6.3470   -3.8250 N.ar   54  DT54       -0.1533
   1085  C4         0.8330   -5.7980   -4.5430 C.ar   54  DT54        0.2804
   1086  O4        -0.3180   -5.9340   -4.1380 O.2    54  DT54       -0.2654
   1087  C5         1.2290   -5.1000   -5.7340 C.ar   54  DT54        0.0534
   1088  C6         2.5230   -5.0280   -6.0580 C.ar   54  DT54        0.0824
   1089  C7         0.1670   -4.4680   -6.5850 C.3    54  DT54        0.0377
   1090  P          6.1370   -8.6830   -9.1670 P.3    55  DC55        0.2141
   1091  OP1        7.0800   -9.3560  -10.0990 O.2    55  DC55       -0.5172
   1092  OP2        4.7890   -8.2750   -9.6460 O.3    55  DC55       -0.4373
   1093  O5'        5.9630   -9.6260   -7.8930 O.3    55  DC55       -0.3114
   1094  C5'        7.1180  -10.1790   -7.2330 C.3    55  DC55        0.1811
   1095  C4'        6.7140  -10.9520   -5.9950 C.3    55  DC55        0.1746
   1096  O4'        5.9530  -10.0890   -5.1100 O.3    55  DC55       -0.3327
   1097  C3'        5.7980  -12.1550   -6.1700 C.3    55  DC55        0.1558
   1098  O3'        6.4930  -13.3210   -6.5890 O.3    55  DC55       -0.3138
   1099  C2'        5.2580  -12.3330   -4.7590 C.3    55  DC55        0.0866
   1100  C1'        5.0640  -10.8780   -4.3350 C.3    55  DC55        0.2106
   1101  N1         3.6810  -10.4780   -4.6210 N.ar   55  DC55       -0.2556
   1102  C2         2.6480  -10.7780   -3.7250 C.ar   55  DC55        0.3531
   1103  O2         2.9250  -11.3770   -2.6720 O.2    55  DC55       -0.2443
   1104  N3         1.3810  -10.4090   -4.0320 N.ar   55  DC55       -0.1739
   1105  C4         1.1310   -9.7680   -5.1740 C.ar   55  DC55        0.1759
   1106  N4        -0.1330   -9.4240   -5.4330 N.pl3  55  DC55       -0.1070
   1107  C5         2.1640   -9.4550   -6.0950 C.ar   55  DC55        0.0566
   1108  C6         3.4130   -9.8210   -5.7890 C.ar   55  DC55        0.0849
   1109  P          5.7430  -14.3350   -7.0740 P.3    56  DT56        0.2141
   1110  OP1        7.0570  -15.0110   -7.1410 O.3    56  DT56       -0.4373
   1111  OP2        5.0890  -13.8720   -8.3160 O.2    56  DT56       -0.5172
   1112  O5'        4.7160  -15.2910   -6.3040 O.3    56  DT56       -0.3114
   1113  C5'        5.1520  -16.1050   -5.2200 C.3    56  DT56        0.1812
   1114  C4'        4.0570  -16.2450   -4.1780 C.3    56  DT56        0.1775
   1115  O4'        3.5520  -14.9210   -3.8680 O.3    56  DT56       -0.3326
   1116  C3'        2.8380  -17.0580   -4.6000 C.3    56  DT56        0.1864
   1117  O3'        3.0080  -18.4260   -4.2280 O.3    56  DT56       -0.2133
   1118  C2'        1.7180  -16.4120   -3.7880 C.3    56  DT56        0.0895
   1119  C1'        2.1480  -14.9510   -3.7010 C.3    56  DT56        0.2107
   1120  N1         1.5400  -14.0250   -4.5200 N.ar   56  DT56       -0.2559
   1121  C2         0.2100  -13.7300   -4.2880 C.ar   56  DT56        0.3545
   1122  O2        -0.4300  -14.2210   -3.3750 O.2    56  DT56       -0.2443
   1123  N3        -0.3490  -12.8360   -5.1700 N.ar   56  DT56       -0.1533
   1124  C4         0.2750  -12.2220   -6.2350 C.ar   56  DT56        0.2804
   1125  O4        -0.3600  -11.4400   -6.9380 O.2    56  DT56       -0.2654
   1126  C5         1.6540  -12.5800   -6.4100 C.ar   56  DT56        0.0534
   1127  C6         2.2230  -13.4470   -5.5680 C.ar   56  DT56        0.0824
   1128  C7         2.4200  -11.9640   -7.5430 C.3    56  DT56        0.0377
   1129  P          2.2640  -19.5450   -5.1010 P.3    57  DG57        0.3939
   1130  OP1        3.5090  -19.4170   -4.3010 O.3    57  DG57       -0.1496
   1131  OP2        2.1280  -20.6580   -6.1060 O.3    57  DG57       -0.1425
   1132  O5'        1.0780  -19.6330   -4.0310 O.3    57  DG57       -0.2926
   1133  C5'       -0.2710  -19.9560   -4.4160 C.3    57  DG57        0.1828
   1134  C4'       -1.2020  -18.7840   -4.1730 C.3    57  DG57        0.1747
   1135  O4'       -1.0240  -17.7800   -5.2200 O.3    57  DG57       -0.3327
   1136  C3'       -2.6820  -19.1350   -4.2360 C.3    57  DG57        0.1558
   1137  O3'       -3.1540  -19.6590   -2.9810 O.3    57  DG57       -0.3138
   1138  C2'       -3.2960  -17.7900   -4.6140 C.3    57  DG57        0.0865
   1139  C1'       -2.2740  -17.2400   -5.5970 C.3    57  DG57        0.2094
   1140  N9        -2.5480  -17.6160   -6.9440 N.ar   57  DG57       -0.2713
   1141  C8        -1.8210  -18.4760   -7.7300 C.ar   57  DG57        0.1816
   1142  N7        -2.3510  -18.6720   -8.9070 N.ar   57  DG57       -0.2173
   1143  C5        -3.4950  -17.8950   -8.9010 C.ar   57  DG57        0.1748
   1144  C6        -4.4830  -17.6990   -9.8990 C.ar   57  DG57        0.3023
   1145  O6        -4.5380  -18.1970  -11.0310 O.2    57  DG57       -0.2633
   1146  N1        -5.4830  -16.8260   -9.4790 N.ar   57  DG57       -0.1709
   1147  C2        -5.5240  -16.2160   -8.2480 C.ar   57  DG57        0.2606
   1148  N2        -6.5670  -15.4050   -8.0250 N.pl3  57  DG57       -0.0859
   1149  N3        -4.6140  -16.3890   -7.3100 N.ar   57  DG57       -0.1918
   1150  C4        -3.6340  -17.2340   -7.6960 C.ar   57  DG57        0.1722
   1151  P         -4.6000  -20.6140   -2.9350 P.3    58  DC58        0.2141
   1152  OP1       -4.4520  -21.7860   -2.0380 O.3    58  DC58       -0.4373
   1153  OP2       -5.0690  -20.7890   -4.3350 O.2    58  DC58       -0.5172
   1154  O5'       -5.5220  -19.5360   -2.2380 O.3    58  DC58       -0.3114
   1155  C5'       -5.5940  -18.2420   -2.7830 C.3    58  DC58        0.1811
   1156  C4'       -7.0170  -17.9020   -3.0670 C.3    58  DC58        0.1746
   1157  O4'       -7.0430  -17.0640   -4.2530 O.3    58  DC58       -0.3327
   1158  C3'       -7.8590  -19.1020   -3.4440 C.3    58  DC58        0.1558
   1159  O3'       -8.3450  -19.7340   -2.2680 O.3    58  DC58       -0.3138
   1160  C2'       -8.9450  -18.4540   -4.2880 C.3    58  DC58        0.0866
   1161  C1'       -8.1130  -17.4530   -5.0930 C.3    58  DC58        0.2106
   1162  N1        -7.4980  -18.0310   -6.3680 N.ar   58  DC58       -0.2556
   1163  C2        -8.3150  -17.8910   -7.4960 C.ar   58  DC58        0.3531
   1164  O2        -9.3040  -17.1410   -7.4280 O.2    58  DC58       -0.2443
   1165  N3        -8.0040  -18.5740   -8.6230 N.ar   58  DC58       -0.1739
   1166  C4        -6.9330  -19.3670   -8.6490 C.ar   58  DC58        0.1759
   1167  N4        -6.6670  -20.0200   -9.7830 N.pl3  58  DC58       -0.1070
   1168  C5        -6.0930  -19.5230   -7.5170 C.ar   58  DC58        0.0566
   1169  C6        -6.4030  -18.8470   -6.4050 C.ar   58  DC58        0.0849
   1170  P         -9.0300  -21.2980   -2.3360 P.3    59  DA59        0.2141
   1171  OP1       -8.9940  -21.8910   -0.9800 O.3    59  DA59       -0.4373
   1172  OP2       -8.4710  -22.0220   -3.5020 O.2    59  DA59       -0.5172
   1173  O5'      -10.5490  -21.0040   -2.7460 O.3    59  DA59       -0.3114
   1174  C5'      -11.2420  -19.8640   -2.2590 C.3    59  DA59        0.1811
   1175  C4'      -12.4510  -19.5920   -3.1130 C.3    59  DA59        0.1746
   1176  O4'      -12.0470  -18.9770   -4.3620 O.3    59  DA59       -0.3327
   1177  C3'      -13.2040  -20.8420   -3.5280 C.3    59  DA59        0.1558
   1178  O3'      -14.1040  -21.2640   -2.5230 O.3    59  DA59       -0.3138
   1179  C2'      -13.8600  -20.4450   -4.8450 C.3    59  DA59        0.0865
   1180  C1'      -12.8190  -19.4860   -5.4310 C.3    59  DA59        0.2094
   1181  N9       -11.9350  -20.0340   -6.3340 N.ar   59  DA59       -0.2714
   1182  C8       -10.6990  -20.5800   -6.1040 C.ar   59  DA59        0.1815
   1183  N7       -10.1930  -21.2010   -7.1430 N.ar   59  DA59       -0.2193
   1184  C5       -11.1640  -21.0550   -8.1210 C.ar   59  DA59        0.1518
   1185  C6       -11.2330  -21.4890   -9.4570 C.ar   59  DA59        0.1919
   1186  N6       -10.2680  -22.1880  -10.0580 N.pl3  59  DA59       -0.1054
   1187  N1       -12.3430  -21.1770  -10.1600 N.ar   59  DA59       -0.2040
   1188  C2       -13.3090  -20.4750   -9.5570 C.ar   59  DA59        0.2016
   1189  N3       -13.3580  -20.0110   -8.3100 N.ar   59  DA59       -0.2048
   1190  C4       -12.2420  -20.3390   -7.6380 C.ar   59  DA59        0.1691
   1191  P        -14.3820  -22.8420   -2.3120 P.3    60  DC60        0.2141
   1192  OP1      -15.3590  -22.8400   -1.2060 O.3    60  DC60       -0.4373
   1193  OP2      -13.2030  -23.7360   -2.2560 O.2    60  DC60       -0.5172
   1194  O5'      -15.1460  -23.0930   -3.6930 O.3    60  DC60       -0.3114
   1195  C5'      -16.5520  -22.9370   -3.7490 C.3    60  DC60        0.1811
   1196  C4'      -17.0450  -23.0540   -5.1770 C.3    60  DC60        0.1746
   1197  O4'      -16.1120  -22.4250   -6.0880 O.3    60  DC60       -0.3327
   1198  C3'      -17.1450  -24.4710   -5.7130 C.3    60  DC60        0.1558
   1199  O3'      -18.2940  -25.1190   -5.2250 O.3    60  DC60       -0.3138
   1200  C2'      -17.1990  -24.2070   -7.2110 C.3    60  DC60        0.0866
   1201  C1'      -16.1080  -23.1480   -7.3090 C.3    60  DC60        0.2106
   1202  N1       -14.8210  -23.7600   -7.6810 N.ar   60  DC60       -0.2556
   1203  C2       -14.5940  -24.3110   -8.9470 C.ar   60  DC60        0.3531
   1204  O2       -15.5600  -24.4630   -9.7140 O.2    60  DC60       -0.2443
   1205  N3       -13.3340  -24.6640   -9.2970 N.ar   60  DC60       -0.1739
   1206  C4       -12.3280  -24.4830   -8.4390 C.ar   60  DC60        0.1759
   1207  N4       -11.1040  -24.8460   -8.8280 N.pl3  60  DC60       -0.1070
   1208  C5       -12.5370  -23.9260   -7.1520 C.ar   60  DC60        0.0566
   1209  C6       -13.7830  -23.5790   -6.8100 C.ar   60  DC60        0.0849
   1210  P        -17.9620  -26.1770   -4.3360 P.3    61  DA61        0.2141
   1211  OP1      -19.0400  -26.5610   -3.3930 O.3    61  DA61       -0.4373
   1212  OP2      -16.5710  -25.9490   -3.8630 O.2    61  DA61       -0.5172
   1213  O5'      -17.9210  -27.2680   -5.5090 O.3    61  DA61       -0.3114
   1214  C5'      -19.1040  -27.5120   -6.2460 C.3    61  DA61        0.1811
   1215  C4'      -18.7180  -28.1480   -7.5560 C.3    61  DA61        0.1746
   1216  O4'      -17.6650  -27.3720   -8.1500 O.3    61  DA61       -0.3327
   1217  C3'      -18.1050  -29.5230   -7.3990 C.3    61  DA61        0.1558
   1218  O3'      -19.1980  -30.4380   -7.3580 O.3    61  DA61       -0.3138
   1219  C2'      -17.2590  -29.6400   -8.6650 C.3    61  DA61        0.0865
   1220  C1'      -16.9590  -28.1920   -9.0510 C.3    61  DA61        0.2094
   1221  N9       -15.6920  -27.8220   -8.8940 N.ar   61  DA61       -0.2714
   1222  C8       -15.0930  -27.2670   -7.7930 C.ar   61  DA61        0.1815
   1223  N7       -13.7890  -27.4140   -7.7700 N.ar   61  DA61       -0.2193
   1224  C5       -13.5140  -28.1150   -8.9330 C.ar   61  DA61        0.1518
   1225  C6       -12.3120  -28.5830   -9.4930 C.ar   61  DA61        0.1919
   1226  N6       -11.1150  -28.4060   -8.9290 N.pl3  61  DA61       -0.1054
   1227  N1       -12.3850  -29.2470  -10.6660 N.ar   61  DA61       -0.2040
   1228  C2       -13.5850  -29.4230  -11.2320 C.ar   61  DA61        0.2016
   1229  N3       -14.7820  -29.0290  -10.8030 N.ar   61  DA61       -0.2048
   1230  C4       -14.6750  -28.3740   -9.6350 C.ar   61  DA61        0.1691
   1231  P        -19.0610  -32.1040   -7.0880 P.3    62  DT62        0.2141
   1232  OP1      -19.9840  -33.1200   -6.5330 O.2    62  DT62       -0.5172
   1233  OP2      -17.8520  -31.7030   -6.3330 O.3    62  DT62       -0.4373
   1234  O5'      -18.4790  -32.5950   -8.4940 O.3    62  DT62       -0.3114
   1235  C5'      -19.3000  -33.1250   -9.5240 C.3    62  DT62        0.1811
   1236  C4'      -18.4570  -33.6920  -10.6420 C.3    62  DT62        0.1746
   1237  O4'      -17.6040  -32.6560  -11.2000 O.3    62  DT62       -0.3327
   1238  C3'      -17.4940  -34.8060  -10.2490 C.3    62  DT62        0.1558
   1239  O3'      -18.1400  -36.0670  -10.1610 O.3    62  DT62       -0.3138
   1240  C2'      -16.4190  -34.7160  -11.3310 C.3    62  DT62        0.0866
   1241  C1'      -16.3560  -33.2050  -11.5670 C.3    62  DT62        0.2106
   1242  N1       -15.3170  -32.4900  -10.7140 N.ar   62  DT62       -0.2559
   1243  C2       -14.0400  -32.4890  -11.2410 C.ar   62  DT62        0.3545
   1244  O2       -13.7740  -32.9450  -12.3390 O.2    62  DT62       -0.2443
   1245  N3       -13.0780  -31.9330  -10.4330 N.ar   62  DT62       -0.1533
   1246  C4       -13.2620  -31.3900   -9.1780 C.ar   62  DT62        0.2804
   1247  O4       -12.2980  -30.9270   -8.5730 O.2    62  DT62       -0.2654
   1248  C5       -14.6150  -31.4300   -8.7000 C.ar   62  DT62        0.0534
   1249  C6       -15.5700  -31.9640   -9.4660 C.ar   62  DT62        0.0824
   1250  C7       -14.9170  -30.8640   -7.3440 C.3    62  DT62        0.0377
   1251  P        -17.4440  -37.4310   -9.6330 P.3    63  DA63        0.2141
   1252  OP1      -18.3930  -38.5500   -9.8620 O.2    63  DA63       -0.5172
   1253  OP2      -17.0510  -37.0690   -8.2530 O.3    63  DA63       -0.4373
   1254  O5'      -16.1160  -37.7240  -10.4730 O.3    63  DA63       -0.3114
   1255  C5'      -16.1850  -38.3900  -11.7170 C.3    63  DA63        0.1811
   1256  C4'      -14.9460  -38.1260  -12.5450 C.3    63  DA63        0.1746
   1257  O4'      -14.5210  -36.7380  -12.4240 O.3    63  DA63       -0.3327
   1258  C3'      -13.6970  -38.8800  -12.1260 C.3    63  DA63        0.1558
   1259  O3'      -13.7570  -40.2510  -12.4880 O.3    63  DA63       -0.3138
   1260  C2'      -12.6690  -38.0800  -12.9230 C.3    63  DA63        0.0865
   1261  C1'      -13.1120  -36.6570  -12.5760 C.3    63  DA63        0.2094
   1262  N9       -12.4500  -36.1750  -11.3370 N.ar   63  DA63       -0.2714
   1263  C8       -13.1690  -35.7740  -10.2420 C.ar   63  DA63        0.1815
   1264  N7       -12.4690  -35.0780   -9.3760 N.ar   63  DA63       -0.2193
   1265  C5       -11.2050  -35.0200   -9.9420 C.ar   63  DA63        0.1518
   1266  C6       -10.0060  -34.4230   -9.5170 C.ar   63  DA63        0.1919
   1267  N6        -9.8830  -33.7410   -8.3750 N.pl3  63  DA63       -0.1054
   1268  N1        -8.9250  -34.5510  -10.3150 N.ar   63  DA63       -0.2040
   1269  C2        -9.0490  -35.2340  -11.4590 C.ar   63  DA63        0.2016
   1270  N3       -10.1220  -35.8380  -11.9660 N.ar   63  DA63       -0.2048
   1271  C4       -11.1780  -35.6920  -11.1490 C.ar   63  DA63        0.1691
   1272  P        -13.6030  -41.4000  -11.3630 P.3    64  DC64        0.2141
   1273  OP1      -13.8510  -42.8260  -11.6740 O.2    64  DC64       -0.5172
   1274  OP2      -13.9200  -40.8550  -10.0220 O.3    64  DC64       -0.4373
   1275  O5'      -12.0430  -41.0860  -11.5440 O.3    64  DC64       -0.3114
   1276  C5'      -11.3120  -41.5390  -12.6790 C.3    64  DC64        0.1811
   1277  C4'       -9.9920  -40.8170  -12.8190 C.3    64  DC64        0.1747
   1278  O4'      -10.1990  -39.3990  -12.5940 O.3    64  DC64       -0.3326
   1279  C3'       -8.9140  -41.1840  -11.8120 C.3    64  DC64        0.1580
   1280  O3'       -8.2040  -42.3650  -12.1280 O.3    64  DC64       -0.3138
   1281  C2'       -8.0360  -39.9420  -11.7780 C.3    64  DC64        0.1098
   1282  C1'       -9.0960  -38.8530  -11.9040 C.3    64  DC64        0.2129
   1283  N1        -9.5880  -38.3760  -10.5320 N.ar   64  DC64       -0.2556
   1284  C2        -8.8620  -37.3750   -9.8770 C.ar   64  DC64        0.3531
   1285  O2        -7.8530  -36.9080  -10.4320 O.2    64  DC64       -0.2443
   1286  N3        -9.2780  -36.9460   -8.6620 N.ar   64  DC64       -0.1739
   1287  C4       -10.3670  -37.4770   -8.1040 C.ar   64  DC64        0.1759
   1288  N4       -10.7390  -37.0230   -6.9050 N.pl3  64  DC64       -0.1070
   1289  C5       -11.1160  -38.4930   -8.7510 C.ar   64  DC64        0.0566
   1290  C6       -10.7020  -38.9130   -9.9510 C.ar   64  DC64        0.0849
   1291  P         -7.7100  -43.0640  -11.0100 P.3    65  DC65        0.2140
   1292  OP1       -7.4780  -43.7870  -12.2970 O.2    65  DC65       -0.5172
   1293  OP2       -7.6860  -43.8150   -9.7470 O.3    65  DC65       -0.4373
   1294  O5'       -6.6680  -41.8660  -10.9070 O.3    65  DC65       -0.3138
   1295  C5'       -6.5850  -40.8810  -11.9520 C.3    65  DC65        0.1580
   1296  C4'       -5.4260  -39.9530  -11.6970 C.3    65  DC65        0.1752
   1297  O4'       -5.7330  -39.1080  -10.5470 O.3    65  DC65       -0.3326
   1298  C3'       -4.1230  -40.6690  -11.3690 C.3    65  DC65        0.1863
   1299  O3'       -3.0160  -39.9530  -11.8880 O.3    65  DC65       -0.2133
   1300  C2'       -4.1070  -40.6540   -9.8470 C.3    65  DC65        0.0895
   1301  C1'       -4.7600  -39.3070   -9.5400 C.3    65  DC65        0.2107
   1302  N1        -5.5550  -39.2260   -8.2290 N.ar   65  DC65       -0.2556
   1303  C2        -5.0170  -38.4090   -7.2270 C.ar   65  DC65        0.3531
   1304  O2        -4.0150  -37.7230   -7.4890 O.2    65  DC65       -0.2443
   1305  N3        -5.6020  -38.3920   -6.0060 N.ar   65  DC65       -0.1739
   1306  C4        -6.6760  -39.1460   -5.7690 C.ar   65  DC65        0.1759
   1307  N4        -7.2190  -39.0960   -4.5510 N.pl3  65  DC65       -0.1070
   1308  C5        -7.2360  -39.9800   -6.7710 C.ar   65  DC65        0.0566
   1309  C6        -6.6550  -39.9950   -7.9750 C.ar   65  DC65        0.0849
   1310  P         -1.7370  -40.4160  -12.6990 P.3    66  DA66        0.3939
   1311  OP1       -1.0310  -41.6460  -12.2640 O.3    66  DA66       -0.1425
   1312  OP2       -1.7470  -39.2220  -11.8080 O.3    66  DA66       -0.1496
   1313  O5'       -1.1900  -40.0040  -14.1360 O.3    66  DA66       -0.2926
   1314  C5'       -1.0140  -38.6340  -14.4880 C.3    66  DA66        0.1828
   1315  C4'       -1.8020  -38.3140  -15.7210 C.3    66  DA66        0.1747
   1316  O4'       -2.0960  -36.9010  -15.7520 O.3    66  DA66       -0.3327
   1317  C3'       -1.1890  -38.5980  -17.0910 C.3    66  DA66        0.1558
   1318  O3'       -1.2540  -39.9720  -17.4990 O.3    66  DA66       -0.3138
   1319  C2'       -2.0430  -37.7170  -17.9910 C.3    66  DA66        0.0865
   1320  C1'       -2.2800  -36.5010  -17.0950 C.3    66  DA66        0.2094
   1321  N9        -1.3650  -35.4490  -17.2190 N.ar   66  DA66       -0.2714
   1322  C8        -0.2880  -35.2600  -16.3910 C.ar   66  DA66        0.1815
   1323  N7         0.3760  -34.1540  -16.6310 N.ar   66  DA66       -0.2193
   1324  C5        -0.3110  -33.5780  -17.6880 C.ar   66  DA66        0.1518
   1325  C6        -0.1100  -32.3870  -18.4080 C.ar   66  DA66        0.1919
   1326  N6         0.8820  -31.5300  -18.1590 N.pl3  66  DA66       -0.1054
   1327  N1        -0.9760  -32.1050  -19.4050 N.ar   66  DA66       -0.2040
   1328  C2        -1.9710  -32.9640  -19.6540 C.ar   66  DA66        0.2016
   1329  N3        -2.2630  -34.1120  -19.0460 N.ar   66  DA66       -0.2048
   1330  C4        -1.3840  -34.3640  -18.0610 C.ar   66  DA66        0.1691
   1331  P         -0.3670  -40.4310  -18.1570 P.3    67  DG67        0.2141
   1332  OP1       -0.5090  -41.8840  -18.3940 O.2    67  DG67       -0.5172
   1333  OP2        0.8760  -39.8790  -17.5700 O.3    67  DG67       -0.4373
   1334  O5'       -0.6140  -39.6120  -19.5140 O.3    67  DG67       -0.3114
   1335  C5'       -1.6420  -40.0000  -20.4070 C.3    67  DG67        0.1811
   1336  C4'       -1.7500  -39.0570  -21.5980 C.3    67  DG67        0.1746
   1337  O4'       -1.9640  -37.6940  -21.1530 O.3    67  DG67       -0.3327
   1338  C3'       -0.5340  -38.9370  -22.5050 C.3    67  DG67        0.1558
   1339  O3'       -0.4330  -40.0580  -23.3750 O.3    67  DG67       -0.3138
   1340  C2'       -0.9200  -37.6770  -23.2720 C.3    67  DG67        0.0865
   1341  C1'       -1.5040  -36.8080  -22.1580 C.3    67  DG67        0.2094
   1342  N9        -0.6140  -35.9540  -21.5900 N.ar   67  DG67       -0.2713
   1343  C8         0.1640  -36.0880  -20.4650 C.ar   67  DG67        0.1816
   1344  N7         1.1190  -35.2020  -20.3910 N.ar   67  DG67       -0.2173
   1345  C5         0.9650  -34.4350  -21.5310 C.ar   67  DG67        0.1748
   1346  C6         1.7070  -33.3220  -22.0020 C.ar   67  DG67        0.3023
   1347  O6         2.6860  -32.7770  -21.4780 O.2    67  DG67       -0.2633
   1348  N1         1.2110  -32.8390  -23.2100 N.ar   67  DG67       -0.1709
   1349  C2         0.1330  -33.3640  -23.8810 C.ar   67  DG67        0.2606
   1350  N2        -0.1970  -32.7620  -25.0320 N.pl3  67  DG67       -0.0859
   1351  N3        -0.5660  -34.3980  -23.4560 N.ar   67  DG67       -0.1918
   1352  C4        -0.1020  -34.8840  -22.2850 C.ar   67  DG67        0.1722
   1353  P          1.0290  -40.4470  -24.1370 P.3    68  DC68        0.2141
   1354  OP1        0.7190  -41.6920  -24.8960 O.2    68  DC68       -0.5172
   1355  OP2        2.0100  -40.4920  -23.0140 O.3    68  DC68       -0.4373
   1356  O5'        1.4740  -39.3390  -25.1940 O.3    68  DC68       -0.3114
   1357  C5'        0.7990  -39.2330  -26.4490 C.3    68  DC68        0.1811
   1358  C4'        1.4490  -38.1730  -27.3130 C.3    68  DC68        0.1746
   1359  O4'        1.3750  -36.9010  -26.6260 O.3    68  DC68       -0.3327
   1360  C3'        2.9360  -38.3630  -27.5490 C.3    68  DC68        0.1558
   1361  O3'        3.1990  -39.2350  -28.6440 O.3    68  DC68       -0.3138
   1362  C2'        3.4100  -36.9500  -27.8480 C.3    68  DC68        0.0866
   1363  C1'        2.5370  -36.1390  -26.9010 C.3    68  DC68        0.2106
   1364  N1         3.1300  -35.6590  -25.6440 N.ar   68  DC68       -0.2556
   1365  C2         3.6780  -34.3720  -25.5950 C.ar   68  DC68        0.3531
   1366  O2         3.5670  -33.6370  -26.5910 O.2    68  DC68       -0.2443
   1367  N3         4.3120  -33.9680  -24.4690 N.ar   68  DC68       -0.1739
   1368  C4         4.4070  -34.7920  -23.4250 C.ar   68  DC68        0.1759
   1369  N4         5.0410  -34.3500  -22.3360 N.pl3  68  DC68       -0.1070
   1370  C5         3.8590  -36.1000  -23.4540 C.ar   68  DC68        0.0566
   1371  C6         3.2340  -36.4950  -24.5690 C.ar   68  DC68        0.0849
   1372  P          4.3830  -40.2150  -28.5950 P.3    69  DT69        0.2141
   1373  OP1        4.6500  -41.2740  -29.5980 O.2    69  DT69       -0.5172
   1374  OP2        4.4910  -40.5340  -27.1500 O.3    69  DT69       -0.4373
   1375  O5'        5.3750  -39.0040  -28.8990 O.3    69  DT69       -0.3114
   1376  C5'        6.0750  -38.9170  -30.1440 C.3    69  DT69        0.1811
   1377  C4'        7.4820  -38.4100  -29.9150 C.3    69  DT69        0.1746
   1378  O4'        7.4150  -37.1060  -29.2850 O.3    69  DT69       -0.3327
   1379  C3'        8.3290  -39.2610  -28.9830 C.3    69  DT69        0.1558
   1380  O3'        9.0220  -40.2580  -29.7290 O.3    69  DT69       -0.3138
   1381  C2'        9.2990  -38.2450  -28.3930 C.3    69  DT69        0.0866
   1382  C1'        8.4200  -36.9940  -28.2910 C.3    69  DT69        0.2106
   1383  N1         7.7080  -36.7540  -26.9700 N.ar   69  DT69       -0.2559
   1384  C2         8.3680  -36.0150  -26.0060 C.ar   69  DT69        0.3545
   1385  O2         9.3850  -35.3850  -26.2340 O.2    69  DT69       -0.2443
   1386  N3         7.7930  -36.0410  -24.7590 N.ar   69  DT69       -0.1533
   1387  C4         6.6490  -36.7160  -24.3860 C.ar   69  DT69        0.2804
   1388  O4         6.2540  -36.6420  -23.2250 O.2    69  DT69       -0.2654
   1389  C5         6.0220  -37.4610  -25.4420 C.ar   69  DT69        0.0534
   1390  C6         6.5610  -37.4530  -26.6640 C.ar   69  DT69        0.0824
   1391  C7         4.7710  -38.2310  -25.1360 C.3    69  DT69        0.0377
   1392  P          9.4270  -41.8530  -28.9690 P.3    70  DT70        0.2141
   1393  OP1        9.6070  -42.8620  -30.0360 O.2    70  DT70       -0.5172
   1394  OP2        8.4680  -42.0900  -27.8630 O.3    70  DT70       -0.4373
   1395  O5'       10.8250  -41.5940  -28.2330 O.3    70  DT70       -0.3114
   1396  C5'       11.9710  -41.2350  -28.9890 C.3    70  DT70        0.1811
   1397  C4'       12.8550  -40.2790  -28.2310 C.3    70  DT70        0.1746
   1398  O4'       12.1200  -39.0730  -27.9020 O.3    70  DT70       -0.3327
   1399  C3'       13.3640  -40.7570  -26.8820 C.3    70  DT70        0.1558
   1400  O3'       14.4400  -41.6830  -26.9850 O.3    70  DT70       -0.3138
   1401  C2'       13.7360  -39.4410  -26.2080 C.3    70  DT70        0.0866
   1402  C1'       12.6350  -38.5090  -26.7150 C.3    70  DT70        0.2106
   1403  N1        11.5560  -38.2410  -25.8350 N.ar   70  DT70       -0.2559
   1404  C2        11.6630  -37.1960  -24.9380 C.ar   70  DT70        0.3545
   1405  O2        12.6370  -36.4660  -24.8810 O.2    70  DT70       -0.2443
   1406  N3        10.5840  -37.0340  -24.1020 N.ar   70  DT70       -0.1533
   1407  C4         9.4340  -37.7950  -24.0760 C.ar   70  DT70        0.2804
   1408  O4         8.5500  -37.5270  -23.2670 O.2    70  DT70       -0.2654
   1409  C5         9.3990  -38.8610  -25.0370 C.ar   70  DT70        0.0534
   1410  C6        10.4350  -39.0410  -25.8610 C.ar   70  DT70        0.0824
   1411  C7         8.1890  -39.7470  -25.0870 C.3    70  DT70        0.0377
   1412  P         14.7950  -42.9030  -25.6320 P.3    71  DA71        0.2141
   1413  OP1       14.3760  -44.3150  -25.4910 O.2    71  DA71       -0.5172
   1414  OP2       14.1000  -41.8490  -24.8610 O.3    71  DA71       -0.4373
   1415  O5'       16.3360  -42.7550  -25.2090 O.3    71  DA71       -0.3114
   1416  C5'       16.7470  -42.9060  -23.8520 C.3    71  DA71        0.1811
   1417  C4'       17.7690  -41.8610  -23.4740 C.3    71  DA71        0.1746
   1418  O4'       17.5270  -40.6750  -24.2780 O.3    71  DA71       -0.3327
   1419  C3'       17.7290  -41.3440  -22.0390 C.3    71  DA71        0.1558
   1420  O3'       18.3820  -42.1550  -21.0710 O.3    71  DA71       -0.3138
   1421  C2'       18.3460  -39.9590  -22.1840 C.3    71  DA71        0.0865
   1422  C1'       17.7260  -39.5120  -23.5040 C.3    71  DA71        0.2094
   1423  N9        16.6010  -38.7490  -23.2650 N.ar   71  DA71       -0.2714
   1424  C8        15.4950  -38.9530  -24.0480 C.ar   71  DA71        0.1815
   1425  N7        14.5250  -38.0980  -23.8260 N.ar   71  DA71       -0.2193
   1426  C5        15.0280  -37.2780  -22.8290 C.ar   71  DA71        0.1501
   1427  C6        14.4860  -36.1710  -22.1520 C.ar   71  DA71        0.1750
   1428  N6        13.2670  -35.6820  -22.3910 N.pl3  71  DA71       -0.1520
   1429  N1        15.2500  -35.5770  -21.2100 N.ar   71  DA71       -0.2057
   1430  C2        16.4720  -36.0670  -20.9720 C.ar   71  DA71        0.2015
   1431  N3        17.0900  -37.0980  -21.5420 N.ar   71  DA71       -0.2048
   1432  C4        16.3050  -37.6670  -22.4720 C.ar   71  DA71        0.1690
   1433  P         17.6890  -42.4900  -19.9160 P.3    72  DT72        0.2141
   1434  OP1       18.5260  -42.8830  -18.7560 O.3    72  DT72       -0.4373
   1435  OP2       16.2250  -42.7450  -19.8730 O.2    72  DT72       -0.5172
   1436  O5'       17.8480  -40.9210  -20.0750 O.3    72  DT72       -0.3114
   1437  C5'       19.0230  -40.2580  -19.6360 C.3    72  DT72        0.1811
   1438  C4'       18.6590  -38.9660  -18.9410 C.3    72  DT72        0.1746
   1439  O4'       17.7010  -38.2330  -19.7560 O.3    72  DT72       -0.3327
   1440  C3'       18.0000  -39.0880  -17.5720 C.3    72  DT72        0.1558
   1441  O3'       18.9900  -39.1810  -16.5430 O.3    72  DT72       -0.3138
   1442  C2'       17.2180  -37.7830  -17.4650 C.3    72  DT72        0.0866
   1443  C1'       16.8010  -37.5380  -18.9180 C.3    72  DT72        0.2105
   1444  N1        15.3720  -37.9420  -19.2180 N.ar   72  DT72       -0.2591
   1445  C2        14.3570  -37.0420  -18.9580 C.ar   72  DT72        0.3079
   1446  O2        14.5570  -35.9240  -18.5170 O.3    72  DT72       -0.4110
   1447  N3        13.0900  -37.4990  -19.2340 N.ar   72  DT72       -0.1567
   1448  C4        12.7460  -38.7380  -19.7320 C.ar   72  DT72        0.2803
   1449  O4        11.5620  -39.0030  -19.9290 O.2    72  DT72       -0.2654
   1450  C5        13.8550  -39.6160  -19.9750 C.ar   72  DT72        0.0534
   1451  C6        15.0970  -39.1970  -19.7160 C.ar   72  DT72        0.0823
   1452  C7        13.5830  -40.9880  -20.5170 C.3    72  DT72        0.0377
   1453  P         18.5250  -39.5680  -14.6600 P.3    73  DT73        0.2141
   1454  OP1       19.3680  -40.0440  -13.5390 O.3    73  DT73       -0.4373
   1455  OP2       17.3290  -40.3370  -15.0730 O.2    73  DT73       -0.5172
   1456  O5'       17.9820  -38.0990  -14.3400 O.3    73  DT73       -0.3114
   1457  C5'       17.2330  -37.8340  -13.1700 C.3    73  DT73        0.1812
   1458  C4'       16.3340  -36.6500  -13.3890 C.3    73  DT73        0.1775
   1459  O4'       15.8320  -36.6610  -14.7480 O.3    73  DT73       -0.3326
   1460  C3'       15.0820  -36.6330  -12.5380 C.3    73  DT73        0.1864
   1461  O3'       15.3220  -36.1440  -11.2350 O.3    73  DT73       -0.2133
   1462  C2'       14.1290  -35.7780  -13.3600 C.3    73  DT73        0.0895
   1463  C1'       14.4840  -36.2450  -14.7670 C.3    73  DT73        0.2107
   1464  N1        13.5600  -37.4010  -15.2070 N.ar   73  DT73       -0.2559
   1465  C2        12.2140  -37.1880  -15.4370 C.ar   73  DT73        0.3545
   1466  O2        11.6440  -36.1550  -15.1330 O.2    73  DT73       -0.2443
   1467  N3        11.5550  -38.2320  -16.0390 N.ar   73  DT73       -0.1533
   1468  C4        12.0940  -39.4420  -16.4250 C.ar   73  DT73        0.2804
   1469  O4        11.3730  -40.2830  -16.9560 O.2    73  DT73       -0.2654
   1470  C5        13.4960  -39.5870  -16.1510 C.ar   73  DT73        0.0534
   1471  C6        14.1620  -38.5880  -15.5670 C.ar   73  DT73        0.0824
   1472  C7        14.1750  -40.8690  -16.5330 C.3    73  DT73        0.0377
   1473  P         14.5410  -37.3340  -10.2550 P.3    74  DC74        0.3939
   1474  OP1       15.4310  -36.3860   -9.5400 O.3    74  DC74       -0.1496
   1475  OP2       13.7920  -38.3590   -9.4980 O.3    74  DC74       -0.1425
   1476  O5'       13.4100  -36.5490  -11.0670 O.3    74  DC74       -0.2926
   1477  C5'       12.2060  -37.1930  -11.4680 C.3    74  DC74        0.1829
   1478  C4'       11.0570  -36.2160  -11.5640 C.3    74  DC74        0.1775
   1479  O4'       10.2550  -36.2690  -10.3520 O.3    74  DC74       -0.3326
   1480  C3'       11.4990  -34.7670  -11.7140 C.3    74  DC74        0.1864
   1481  O3'       10.5620  -34.0370  -12.4940 O.3    74  DC74       -0.2133
   1482  C2'       11.4440  -34.2570  -10.2840 C.3    74  DC74        0.0895
   1483  C1'       10.2060  -34.9800   -9.7700 C.3    74  DC74        0.2107
   1484  N1        10.2510  -35.0310   -8.2920 N.ar   74  DC74       -0.2556
   1485  C2         9.1320  -34.6860   -7.5250 C.ar   74  DC74        0.3531
   1486  O2         8.0850  -34.3590   -8.1090 O.2    74  DC74       -0.2443
   1487  N3         9.2230  -34.7180   -6.1740 N.ar   74  DC74       -0.1739
   1488  C4        10.3680  -35.0740   -5.5910 C.ar   74  DC74        0.1759
   1489  N4        10.4110  -35.0910   -4.2570 N.pl3  74  DC74       -0.1070
   1490  C5        11.5130  -35.4270   -6.3500 C.ar   74  DC74        0.0566
   1491  C6        11.4190  -35.3940   -7.6840 C.ar   74  DC74        0.0849
   1492  P         11.6950  -32.8940  -13.2600 P.3    75  DA75        0.3939
   1493  OP1       12.4660  -31.8650  -12.5190 O.3    75  DA75       -0.1425
   1494  OP2       10.2240  -32.7330  -13.4260 O.3    75  DA75       -0.1496
   1495  O5'       12.3590  -33.1320  -14.6970 O.3    75  DA75       -0.2926
   1496  C5'       13.7790  -33.1760  -14.8350 C.3    75  DA75        0.1829
   1497  C4'       14.1880  -33.2950  -16.2860 C.3    75  DA75        0.1781
   1498  O4'       13.7890  -34.5780  -16.8260 O.3    75  DA75       -0.3053
   1499  C3'       13.6220  -32.2880  -17.2720 C.3    75  DA75        0.1597
   1500  O3'       14.3090  -31.0390  -17.2140 O.3    75  DA75       -0.3137
   1501  C2'       13.8010  -33.0020  -18.6150 C.3    75  DA75        0.1279
   1502  C1'       13.6020  -34.4640  -18.2270 C.3    75  DA75        0.3178
   1503  N9        12.2950  -34.9880  -18.5290 N.ar   75  DA75       -0.2435
   1504  C8        11.2570  -35.1710  -17.6530 C.ar   75  DA75        0.1841
   1505  N7        10.1790  -35.6730  -18.2080 N.ar   75  DA75       -0.2147
   1506  C5        10.5320  -35.8290  -19.5390 C.ar   75  DA75        0.2046
   1507  C6         9.8280  -36.3170  -20.6540 C.2    75  DA75        0.4341
   1508  N6         8.5690  -36.7560  -20.5980 N.pl3  75  DA75        0.2178
   1509  N1        10.4710  -36.3380  -21.8410 N.2    75  DA75       -0.0138
   1510  C2        11.7340  -35.8990  -21.8950 C.3    75  DA75        0.4132
   1511  N3        12.5000  -35.4190  -20.9180 N.pl3  75  DA75       -0.1533
   1512  C4        11.8320  -35.4100  -19.7520 C.ar   75  DA75        0.1648
   1513  P         13.3890  -29.5180  -17.2210 P.3    76  DA76        0.2141
   1514  OP1       14.0940  -28.3130  -16.7200 O.3    76  DA76       -0.4373
   1515  OP2       12.0110  -29.8040  -16.7560 O.2    76  DA76       -0.5172
   1516  O5'       13.3700  -29.4470  -18.8110 O.3    76  DA76       -0.3114
   1517  C5'       14.5660  -29.1830  -19.5390 C.3    76  DA76        0.1811
   1518  C4'       14.3380  -29.4100  -21.0090 C.3    76  DA76        0.1746
   1519  O4'       14.0870  -30.8220  -21.2450 O.3    76  DA76       -0.3327
   1520  C3'       13.1110  -28.7190  -21.5820 C.3    76  DA76        0.1558
   1521  O3'       13.3910  -27.3670  -21.9170 O.3    76  DA76       -0.3138
   1522  C2'       12.8170  -29.5640  -22.8130 C.3    76  DA76        0.0865
   1523  C1'       13.1500  -30.9700  -22.3030 C.3    76  DA76        0.2094
   1524  N9        12.0050  -31.7020  -21.7730 N.ar   76  DA76       -0.2714
   1525  C8        11.6130  -31.8440  -20.4680 C.ar   76  DA76        0.1815
   1526  N7        10.5340  -32.5750  -20.3160 N.ar   76  DA76       -0.2193
   1527  C5        10.1940  -32.9370  -21.6090 C.ar   76  DA76        0.1518
   1528  C6         9.1440  -33.7150  -22.1290 C.ar   76  DA76        0.1919
   1529  N6         8.2070  -34.2920  -21.3730 N.pl3  76  DA76       -0.1054
   1530  N1         9.0910  -33.8820  -23.4670 N.ar   76  DA76       -0.2040
   1531  C2        10.0320  -33.3050  -24.2240 C.ar   76  DA76        0.2016
   1532  N3        11.0650  -32.5530  -23.8530 N.ar   76  DA76       -0.2048
   1533  C4        11.0900  -32.4060  -22.5180 C.ar   76  DA76        0.1691
   1534  P         12.1580  -26.2260  -21.8800 P.3    77  DT77        0.2141
   1535  OP1       12.6220  -24.8800  -22.2880 O.2    77  DT77       -0.5172
   1536  OP2       11.2110  -26.3800  -20.7530 O.3    77  DT77       -0.4373
   1537  O5'       11.5280  -26.9830  -23.1470 O.3    77  DT77       -0.3114
   1538  C5'       11.9980  -26.7880  -24.4800 C.3    77  DT77        0.1811
   1539  C4'       11.1520  -27.5600  -25.4850 C.3    77  DT77        0.1746
   1540  O4'       11.1470  -28.9820  -25.1820 O.3    77  DT77       -0.3327
   1541  C3'        9.6700  -27.2110  -25.5170 C.3    77  DT77        0.1558
   1542  O3'        9.4130  -26.0280  -26.2670 O.3    77  DT77       -0.3138
   1543  C2'        9.1100  -28.4550  -26.1960 C.3    77  DT77        0.0866
   1544  C1'        9.8670  -29.5430  -25.4550 C.3    77  DT77        0.2106
   1545  N1         9.1720  -30.0090  -24.2250 N.ar   77  DT77       -0.2559
   1546  C2         8.1370  -30.9080  -24.4000 C.ar   77  DT77        0.3545
   1547  O2         7.7710  -31.2940  -25.4970 O.2    77  DT77       -0.2443
   1548  N3         7.5400  -31.3410  -23.2410 N.ar   77  DT77       -0.1533
   1549  C4         7.8670  -30.9740  -21.9520 C.ar   77  DT77        0.2804
   1550  O4         7.2400  -31.4500  -21.0100 O.2    77  DT77       -0.2654
   1551  C5         8.9510  -30.0370  -21.8530 C.ar   77  DT77        0.0534
   1552  C6         9.5490  -29.5990  -22.9640 C.ar   77  DT77        0.0824
   1553  C7         9.3820  -29.5750  -20.4920 C.3    77  DT77        0.0377
   1554  P          8.0120  -25.0860  -26.0490 P.3    78  DT78        0.2141
   1555  OP1        8.4490  -23.8980  -26.8170 O.2    78  DT78       -0.5172
   1556  OP2        8.0960  -25.1030  -24.5710 O.3    78  DT78       -0.4373
   1557  O5'        6.4730  -25.3950  -26.3590 O.3    78  DT78       -0.3114
   1558  C5'        6.1410  -25.8570  -27.6630 C.3    78  DT78        0.1811
   1559  C4'        4.8350  -26.6100  -27.7100 C.3    78  DT78        0.1746
   1560  O4'        4.9870  -27.8520  -26.9660 O.3    78  DT78       -0.3327
   1561  C3'        3.6360  -25.8700  -27.1130 C.3    78  DT78        0.1558
   1562  O3'        2.6000  -25.5980  -28.0540 O.3    78  DT78       -0.3138
   1563  C2'        3.0680  -26.7960  -26.0450 C.3    78  DT78        0.0866
   1564  C1'        3.8500  -28.0950  -26.1630 C.3    78  DT78        0.2106
   1565  N1         4.0390  -28.6520  -24.9030 N.ar   78  DT78       -0.2559
   1566  C2         3.4110  -29.8140  -24.4970 C.ar   78  DT78        0.3545
   1567  O2         2.5740  -30.3880  -25.1710 O.2    78  DT78       -0.2443
   1568  N3         3.7970  -30.2830  -23.2640 N.ar   78  DT78       -0.1533
   1569  C4         4.7280  -29.7200  -22.4170 C.ar   78  DT78        0.2804
   1570  O4         4.9710  -30.2590  -21.3400 O.2    78  DT78       -0.2654
   1571  C5         5.3350  -28.5150  -22.9090 C.ar   78  DT78        0.0534
   1572  C6         4.9780  -28.0370  -24.1040 C.ar   78  DT78        0.0824
   1573  C7         6.3610  -27.8260  -22.0590 C.3    78  DT78        0.0377
   1574  P          1.6220  -24.3420  -27.5770 P.3    79  DA79        0.2141
   1575  OP1        0.8730  -24.4380  -28.8350 O.2    79  DA79       -0.5172
   1576  OP2        2.4200  -23.1240  -27.3610 O.3    79  DA79       -0.4373
   1577  O5'        0.6710  -24.4010  -26.2940 O.3    79  DA79       -0.3114
   1578  C5'       -0.1870  -25.4620  -25.9450 C.3    79  DA79        0.1811
   1579  C4'        0.4350  -26.3130  -24.8560 C.3    79  DA79        0.1746
   1580  O4'        1.8700  -26.1080  -24.7820 O.3    79  DA79       -0.3327
   1581  C3'       -0.0000  -26.0470  -23.4290 C.3    79  DA79        0.1558
   1582  O3'       -1.2400  -26.6450  -23.1720 O.3    79  DA79       -0.3138
   1583  C2'        1.1010  -26.7700  -22.6690 C.3    79  DA79        0.0865
   1584  C1'        2.3230  -26.3300  -23.4570 C.3    79  DA79        0.2094
   1585  N9         2.9050  -24.9710  -23.0690 N.ar   79  DA79       -0.2714
   1586  C8         3.0680  -23.8790  -23.8810 C.ar   79  DA79        0.1815
   1587  N7         3.8260  -22.9420  -23.3610 N.ar   79  DA79       -0.2193
   1588  C5         4.1840  -23.4530  -22.1240 C.ar   79  DA79        0.1518
   1589  C6         4.9820  -22.9430  -21.0840 C.ar   79  DA79        0.1919
   1590  N6         5.5870  -21.7540  -21.1320 N.pl3  79  DA79       -0.1054
   1591  N1         5.1370  -23.7060  -19.9820 N.ar   79  DA79       -0.2040
   1592  C2         4.5310  -24.8980  -19.9350 C.ar   79  DA79        0.2016
   1593  N3         3.7590  -25.4850  -20.8470 N.ar   79  DA79       -0.2048
   1594  C4         3.6240  -24.7010  -21.9290 C.ar   79  DA79        0.1691
   1595  P         -2.3260  -25.8960  -22.4620 P.3    80  DG80        0.2141
   1596  OP1       -3.6410  -26.2220  -23.0890 O.2    80  DG80       -0.5172
   1597  OP2       -1.9910  -24.4690  -22.2590 O.3    80  DG80       -0.4373
   1598  O5'       -2.2250  -26.5780  -21.0120 O.3    80  DG80       -0.3114
   1599  C5'       -1.5920  -27.8330  -20.8560 C.3    80  DG80        0.1811
   1600  C4'       -0.4100  -27.7430  -19.9290 C.3    80  DG80        0.1746
   1601  O4'        0.6260  -26.9080  -20.4830 O.3    80  DG80       -0.3327
   1602  C3'       -0.6800  -27.0570  -18.6170 C.3    80  DG80        0.1558
   1603  O3'       -1.5660  -27.7820  -17.7600 O.3    80  DG80       -0.3138
   1604  C2'        0.7420  -26.9070  -18.1000 C.3    80  DG80        0.0865
   1605  C1'        1.4490  -26.4530  -19.3960 C.3    80  DG80        0.2094
   1606  N9         1.6580  -25.1530  -19.4000 N.ar   80  DG80       -0.2713
   1607  C8         1.1770  -24.3960  -20.4410 C.ar   80  DG80        0.1816
   1608  N7         1.4550  -23.1260  -20.3260 N.ar   80  DG80       -0.2173
   1609  C5         2.1630  -23.0350  -19.1420 C.ar   80  DG80        0.1748
   1610  C6         2.7300  -21.9100  -18.4890 C.ar   80  DG80        0.3023
   1611  O6         2.7140  -20.7270  -18.8500 O.2    80  DG80       -0.2633
   1612  N1         3.3650  -22.2630  -17.3020 N.ar   80  DG80       -0.1709
   1613  C2         3.4450  -23.5420  -16.8050 C.ar   80  DG80        0.2606
   1614  N2         4.1000  -23.6860  -15.6450 N.pl3  80  DG80       -0.0859
   1615  N3         2.9230  -24.5970  -17.4000 N.ar   80  DG80       -0.1918
   1616  C4         2.3000  -24.2780  -18.5540 C.ar   80  DG80        0.1722
   1617  P         -2.6230  -26.8780  -16.9700 P.3    81  DA81        0.2141
   1618  OP1       -3.4630  -28.0170  -16.5360 O.3    81  DA81       -0.4373
   1619  OP2       -3.2600  -25.7030  -17.6040 O.2    81  DA81       -0.5172
   1620  O5'       -1.8140  -26.4080  -15.6900 O.3    81  DA81       -0.3114
   1621  C5'       -0.9390  -27.3250  -15.0220 C.3    81  DA81        0.1811
   1622  C4'       -0.2190  -26.6330  -13.9060 C.3    81  DA81        0.1746
   1623  O4'        0.7900  -25.7360  -14.4350 O.3    81  DA81       -0.3327
   1624  C3'       -1.1070  -25.7600  -13.0430 C.3    81  DA81        0.1558
   1625  O3'       -1.7050  -26.5250  -12.0360 O.3    81  DA81       -0.3138
   1626  C2'       -0.1310  -24.7510  -12.4670 C.3    81  DA81        0.0865
   1627  C1'        0.8410  -24.5620  -13.6410 C.3    81  DA81        0.2094
   1628  N9         0.5460  -23.4430  -14.5940 N.ar   81  DA81       -0.2714
   1629  C8        -0.3250  -23.3900  -15.6500 C.ar   81  DA81        0.1815
   1630  N7        -0.5490  -22.1750  -16.0900 N.ar   81  DA81       -0.2193
   1631  C5         0.2270  -21.3750  -15.2660 C.ar   81  DA81        0.1518
   1632  C6         0.4300  -19.9850  -15.2150 C.ar   81  DA81        0.1919
   1633  N6        -0.1580  -19.1210  -16.0470 N.pl3  81  DA81       -0.1054
   1634  N1         1.2670  -19.5080  -14.2700 N.ar   81  DA81       -0.2040
   1635  C2         1.8560  -20.3740  -13.4380 C.ar   81  DA81        0.2016
   1636  N3         1.7450  -21.7000  -13.3870 N.ar   81  DA81       -0.2048
   1637  C4         0.9060  -22.1420  -14.3380 C.ar   81  DA81        0.1691
   1638  P         -2.9470  -26.1630  -11.7240 P.3    82  DT82        0.2141
   1639  OP1       -3.8380  -27.3020  -11.3940 O.3    82  DT82       -0.4373
   1640  OP2       -3.5210  -24.9600  -12.3650 O.2    82  DT82       -0.5172
   1641  O5'       -2.2630  -25.5930  -10.3950 O.3    82  DT82       -0.3114
   1642  C5'       -0.8480  -25.4960  -10.3280 C.3    82  DT82        0.1811
   1643  C4'       -0.3880  -24.1870   -9.7380 C.3    82  DT82        0.1746
   1644  O4'        0.0410  -23.2750  -10.7800 O.3    82  DT82       -0.3327
   1645  C3'       -1.4220  -23.3950   -8.9560 C.3    82  DT82        0.1558
   1646  O3'       -1.6060  -23.9050   -7.6510 O.3    82  DT82       -0.3138
   1647  C2'       -0.8340  -21.9910   -8.9730 C.3    82  DT82        0.0866
   1648  C1'       -0.1500  -21.9470  -10.3400 C.3    82  DT82        0.2106
   1649  N1        -0.8640  -21.2980  -11.4510 N.ar   82  DT82       -0.2559
   1650  C2        -0.9210  -19.9210  -11.3470 C.ar   82  DT82        0.3545
   1651  O2        -0.2790  -19.2900  -10.5260 O.2    82  DT82       -0.2443
   1652  N3        -1.7610  -19.3050  -12.2430 N.ar   82  DT82       -0.1533
   1653  C4        -2.5330  -19.9140  -13.2110 C.ar   82  DT82        0.2804
   1654  O4        -3.2380  -19.2250  -13.9440 O.2    82  DT82       -0.2654
   1655  C5        -2.4200  -21.3450  -13.2550 C.ar   82  DT82        0.0534
   1656  C6        -1.6110  -21.9690  -12.3950 C.ar   82  DT82        0.0824
   1657  C7        -3.2210  -22.1000  -14.2740 C.3    82  DT82        0.0377
   1658  P         -3.0880  -23.7740   -6.8950 P.3    83  DA83        0.2141
   1659  OP1       -3.8360  -25.0530   -6.9470 O.2    83  DA83       -0.5172
   1660  OP2       -3.8080  -22.4940   -6.7360 O.3    83  DA83       -0.4373
   1661  O5'       -2.0010  -23.8710   -5.7210 O.3    83  DA83       -0.3114
   1662  C5'       -2.3740  -24.2260   -4.4020 C.3    83  DA83        0.1812
   1663  C4'       -1.5700  -25.4120   -3.8910 C.3    83  DA83        0.1775
   1664  O4'       -0.1440  -25.1960   -4.0650 O.3    83  DA83       -0.3326
   1665  C3'       -1.7300  -25.7000   -2.4040 C.3    83  DA83        0.1864
   1666  O3'       -1.5600  -27.1020   -2.1760 O.3    83  DA83       -0.2133
   1667  C2'       -0.5600  -24.9310   -1.7940 C.3    83  DA83        0.0894
   1668  C1'        0.4910  -25.3550   -2.8060 C.3    83  DA83        0.2095
   1669  N9         1.7890  -24.3920   -3.3190 N.ar   83  DA83       -0.2714
   1670  C8         1.7870  -23.0890   -2.8930 C.ar   83  DA83        0.1815
   1671  N7         2.9870  -22.5790   -2.7460 N.ar   83  DA83       -0.2193
   1672  C5         3.8340  -23.6170   -3.0990 C.ar   83  DA83        0.1518
   1673  C6         5.2360  -23.7160   -3.1560 C.ar   83  DA83        0.1919
   1674  N6         6.0610  -22.7150   -2.8440 N.pl3  83  DA83       -0.1054
   1675  N1         5.7650  -24.8950   -3.5480 N.ar   83  DA83       -0.2040
   1676  C2         4.9370  -25.8980   -3.8620 C.ar   83  DA83        0.2016
   1677  N3         3.6060  -25.9250   -3.8490 N.ar   83  DA83       -0.2048
   1678  C4         3.1110  -24.7400   -3.4530 C.ar   83  DA83        0.1691
   1679  P         -3.0840  -28.6910   -1.9250 P.3    84  DG84        0.3939
   1680  OP1       -4.2700  -28.7770   -1.0440 O.3    84  DG84       -0.1425
   1681  OP2       -1.7870  -28.2300   -1.3780 O.3    84  DG84       -0.1496
   1682  O5'       -2.7680  -30.1320   -2.5500 O.3    84  DG84       -0.2926
   1683  C5'       -1.4360  -30.5200   -2.8540 C.3    84  DG84        0.1828
   1684  C4'       -1.3880  -31.7500   -3.7280 C.3    84  DG84        0.1747
   1685  O4'       -2.2460  -32.7840   -3.1770 O.3    84  DG84       -0.3327
   1686  C3'       -1.8800  -31.5710   -5.1540 C.3    84  DG84        0.1558
   1687  O3'       -0.8830  -31.0240   -5.9990 O.3    84  DG84       -0.3138
   1688  C2'       -2.3110  -32.9820   -5.5420 C.3    84  DG84        0.0865
   1689  C1'       -2.8580  -33.5180   -4.2170 C.3    84  DG84        0.2094
   1690  N9        -4.3950  -33.4110   -4.1350 N.ar   84  DG84       -0.2713
   1691  C8        -5.2910  -32.7280   -3.3480 C.ar   84  DG84        0.1816
   1692  N7        -6.5360  -32.9720   -3.6540 N.ar   84  DG84       -0.2173
   1693  C5        -6.4620  -33.8690   -4.7040 C.ar   84  DG84        0.1748
   1694  C6        -7.4880  -34.4950   -5.4570 C.ar   84  DG84        0.3023
   1695  O6        -8.7130  -34.3710   -5.3350 O.2    84  DG84       -0.2633
   1696  N1        -6.9730  -35.3380   -6.4380 N.ar   84  DG84       -0.1709
   1697  C2        -5.6340  -35.5530   -6.6640 C.ar   84  DG84        0.2606
   1698  N2        -5.3310  -36.4030   -7.6540 N.pl3  84  DG84       -0.0859
   1699  N3        -4.6700  -34.9780   -5.9730 N.ar   84  DG84       -0.1918
   1700  C4        -5.1460  -34.1540   -5.0160 C.ar   84  DG84        0.1722
   1701  P         -1.2570  -30.0170   -7.0970 P.3    85  DT85        0.2141
   1702  OP1       -0.1090  -29.0870   -7.0240 O.2    85  DT85       -0.5172
   1703  OP2       -2.6310  -29.5010   -6.9150 O.3    85  DT85       -0.4373
   1704  O5'       -1.2260  -30.7740   -8.5050 O.3    85  DT85       -0.3114
   1705  C5'       -0.4610  -31.9670   -8.6890 C.3    85  DT85        0.1811
   1706  C4'       -1.1250  -32.8580   -9.7220 C.3    85  DT85        0.1746
   1707  O4'       -2.1080  -33.7150   -9.0920 O.3    85  DT85       -0.3327
   1708  C3'       -1.9070  -32.1040  -10.7810 C.3    85  DT85        0.1558
   1709  O3'       -1.0210  -31.6870  -11.8000 O.3    85  DT85       -0.3138
   1710  C2'       -2.8930  -33.1560  -11.2700 C.3    85  DT85        0.0866
   1711  C1'       -3.1410  -33.9980  -10.0170 C.3    85  DT85        0.2106
   1712  N1        -4.4150  -33.7780   -9.3070 N.ar   85  DT85       -0.2559
   1713  C2        -5.5570  -34.3250   -9.8610 C.ar   85  DT85        0.3545
   1714  O2        -5.5330  -35.1030  -10.7980 O.2    85  DT85       -0.2443
   1715  N3        -6.7350  -33.9270   -9.2760 N.ar   85  DT85       -0.1533
   1716  C4        -6.8820  -33.0560   -8.2170 C.ar   85  DT85        0.2804
   1717  O4        -8.0080  -32.7960   -7.8000 O.2    85  DT85       -0.2654
   1718  C5        -5.6510  -32.5300   -7.6980 C.ar   85  DT85        0.0534
   1719  C6        -4.4910  -32.9000   -8.2480 C.ar   85  DT85        0.0824
   1720  C7        -5.7060  -31.5730   -6.5450 C.3    85  DT85        0.0377
   1721  P         -1.5190  -30.5840  -12.9560 P.3    86  DA86        0.2141
   1722  OP1       -0.3400  -30.5080  -13.8600 O.2    86  DA86       -0.5172
   1723  OP2       -1.8580  -29.4090  -12.1080 O.3    86  DA86       -0.4373
   1724  O5'       -2.7950  -30.9720  -13.8350 O.3    86  DA86       -0.3114
   1725  C5'       -2.6430  -31.5540  -15.1360 C.3    86  DA86        0.1811
   1726  C4'       -3.9350  -32.2060  -15.6160 C.3    86  DA86        0.1746
   1727  O4'       -4.5300  -32.9650  -14.5250 O.3    86  DA86       -0.3327
   1728  C3'       -5.0880  -31.3310  -16.1030 C.3    86  DA86        0.1558
   1729  O3'       -4.9810  -30.8960  -17.4540 O.3    86  DA86       -0.3138
   1730  C2'       -6.2810  -32.2660  -15.9680 C.3    86  DA86        0.0865
   1731  C1'       -5.9390  -33.0230  -14.6910 C.3    86  DA86        0.2094
   1732  N9        -6.6400  -32.2580  -13.5000 N.ar   86  DA86       -0.2714
   1733  C8        -6.1160  -31.4490  -12.5250 C.ar   86  DA86        0.1815
   1734  N7        -6.9830  -31.1050  -11.6020 N.ar   86  DA86       -0.2193
   1735  C5        -8.1550  -31.7280  -11.9990 C.ar   86  DA86        0.1518
   1736  C6        -9.4460  -31.7570  -11.4430 C.ar   86  DA86        0.1919
   1737  N6        -9.7820  -31.1190  -10.3190 N.pl3  86  DA86       -0.1054
   1738  N1       -10.3910  -32.4740  -12.0880 N.ar   86  DA86       -0.2040
   1739  C2       -10.0530  -33.1150  -13.2130 C.ar   86  DA86        0.2016
   1740  N3        -8.8760  -33.1630  -13.8330 N.ar   86  DA86       -0.2048
   1741  C4        -7.9600  -32.4410  -13.1670 C.ar   86  DA86        0.1691
   1742  P         -5.8220  -29.4850  -17.9840 P.3    87  DA87        0.2141
   1743  OP1       -4.6610  -29.7470  -18.8640 O.2    87  DA87       -0.5172
   1744  OP2       -6.8160  -28.4400  -18.3020 O.3    87  DA87       -0.4373
   1745  O5'       -6.6710  -30.8270  -17.8080 O.3    87  DA87       -0.3114
   1746  C5'       -7.2510  -31.4390  -18.9540 C.3    87  DA87        0.1811
   1747  C4'       -8.7520  -31.5810  -18.7940 C.3    87  DA87        0.1746
   1748  O4'       -9.0610  -32.1530  -17.5030 O.3    87  DA87       -0.3327
   1749  C3'       -9.5340  -30.2870  -18.8010 C.3    87  DA87        0.1558
   1750  O3'       -9.8000  -29.9480  -20.1400 O.3    87  DA87       -0.3138
   1751  C2'      -10.8110  -30.7100  -18.0850 C.3    87  DA87        0.0865
   1752  C1'      -10.2680  -31.6220  -16.9970 C.3    87  DA87        0.2094
   1753  N9       -10.0110  -30.8420  -15.7870 N.ar   87  DA87       -0.2714
   1754  C8        -8.8510  -30.2310  -15.3860 C.ar   87  DA87        0.1815
   1755  N7        -8.9760  -29.5300  -14.2840 N.ar   87  DA87       -0.2193
   1756  C5       -10.3080  -29.6900  -13.9380 C.ar   87  DA87        0.1518
   1757  C6       -11.0730  -29.1980  -12.8660 C.ar   87  DA87        0.1919
   1758  N6       -10.5800  -28.4120  -11.9060 N.pl3  87  DA87       -0.1054
   1759  N1       -12.3770  -29.5460  -12.8140 N.ar   87  DA87       -0.2040
   1760  C2       -12.8690  -30.3340  -13.7760 C.ar   87  DA87        0.2016
   1761  N3       -12.2510  -30.8600  -14.8320 N.ar   87  DA87       -0.2048
   1762  C4       -10.9590  -30.4950  -14.8550 C.ar   87  DA87        0.1691
   1763  P         -9.6480  -28.5040  -20.6750 P.3    88  DG88        0.2141
   1764  OP1       -9.5510  -28.4840  -22.1610 O.2    88  DG88       -0.5172
   1765  OP2       -8.5300  -27.9460  -19.8490 O.3    88  DG88       -0.4373
   1766  O5'      -10.9980  -27.7850  -20.2380 O.3    88  DG88       -0.3114
   1767  C5'      -12.2410  -28.3610  -20.6000 C.3    88  DG88        0.1811
   1768  C4'      -13.3140  -27.9900  -19.6120 C.3    88  DG88        0.1746
   1769  O4'      -13.0450  -28.5680  -18.3080 O.3    88  DG88       -0.3327
   1770  C3'      -13.4690  -26.5230  -19.2860 C.3    88  DG88        0.1558
   1771  O3'      -14.1250  -25.8090  -20.3120 O.3    88  DG88       -0.3138
   1772  C2'      -14.2770  -26.5630  -17.9930 C.3    88  DG88        0.0865
   1773  C1'      -13.7090  -27.8020  -17.3170 C.3    88  DG88        0.2094
   1774  N9       -12.7710  -27.3790  -16.2960 N.ar   88  DG88       -0.2713
   1775  C8       -11.3970  -27.3880  -16.3070 C.ar   88  DG88        0.1816
   1776  N7       -10.8710  -26.9190  -15.2080 N.ar   88  DG88       -0.2173
   1777  C5       -11.9580  -26.5820  -14.4230 C.ar   88  DG88        0.1748
   1778  C6       -12.0180  -26.0230  -13.1210 C.ar   88  DG88        0.3023
   1779  O6       -11.0800  -25.7060  -12.3790 O.2    88  DG88       -0.2633
   1780  N1       -13.3300  -25.8380  -12.6940 N.ar   88  DG88       -0.1709
   1781  C2       -14.4470  -26.1520  -13.4320 C.ar   88  DG88        0.2606
   1782  N2       -15.6280  -25.9030  -12.8510 N.pl3  88  DG88       -0.0859
   1783  N3       -14.4060  -26.6710  -14.6430 N.ar   88  DG88       -0.1918
   1784  C4       -13.1420  -26.8590  -15.0780 C.ar   88  DG88        0.1722
   1785  P        -13.5960  -24.1580  -20.7190 P.3    89  DT89        0.2141
   1786  OP1      -13.7580  -23.1670  -21.8060 O.2    89  DT89       -0.5172
   1787  OP2      -12.2540  -24.6420  -20.3280 O.3    89  DT89       -0.4373
   1788  O5'      -14.2030  -23.5400  -19.3770 O.3    89  DT89       -0.3114
   1789  C5'      -15.5850  -23.2360  -19.3380 C.3    89  DT89        0.1811
   1790  C4'      -15.9450  -22.3920  -18.1420 C.3    89  DT89        0.1746
   1791  O4'      -15.9610  -23.1980  -16.9350 O.3    89  DT89       -0.3327
   1792  C3'      -14.9900  -21.2680  -17.7860 C.3    89  DT89        0.1558
   1793  O3'      -15.0830  -20.1500  -18.6500 O.3    89  DT89       -0.3138
   1794  C2'      -15.4120  -20.9690  -16.3560 C.3    89  DT89        0.0866
   1795  C1'      -15.6330  -22.3860  -15.8230 C.3    89  DT89        0.2106
   1796  N1       -14.3750  -22.7610  -15.0760 N.ar   89  DT89       -0.2559
   1797  C2       -14.3930  -22.4790  -13.7230 C.ar   89  DT89        0.3545
   1798  O2       -15.3510  -21.9770  -13.1620 O.2    89  DT89       -0.2443
   1799  N3       -13.2430  -22.8060  -13.0460 N.ar   89  DT89       -0.1533
   1800  C4       -12.1030  -23.3740  -13.5740 C.ar   89  DT89        0.2804
   1801  O4       -11.1480  -23.6110  -12.8380 O.2    89  DT89       -0.2654
   1802  C5       -12.1620  -23.6360  -14.9850 C.ar   89  DT89        0.0534
   1803  C6       -13.2680  -23.3280  -15.6670 C.ar   89  DT89        0.0824
   1804  C7       -10.9700  -24.2530  -15.6540 C.3    89  DT89        0.0377
   1805  P        -13.8030  -19.5390  -19.1210 P.3    90  DG90        0.2141
   1806  OP1      -14.0300  -18.5660  -20.2270 O.2    90  DG90       -0.5172
   1807  OP2      -12.6090  -20.4350  -19.1510 O.3    90  DG90       -0.4373
   1808  O5'      -13.7950  -18.6790  -17.7830 O.3    90  DG90       -0.3114
   1809  C5'      -14.9360  -17.8930  -17.4930 C.3    90  DG90        0.1811
   1810  C4'      -14.6390  -16.8910  -16.4280 C.3    90  DG90        0.1767
   1811  O4'      -14.4270  -17.5690  -15.1770 O.3    90  DG90       -0.3154
   1812  C3'      -13.4390  -16.0020  -16.6610 C.3    90  DG90        0.1581
   1813  O3'      -13.8720  -14.7480  -16.1600 O.3    90  DG90       -0.3138
   1814  C2'      -12.3570  -16.6790  -15.8280 C.3    90  DG90        0.1126
   1815  C1'      -13.1690  -17.2180  -14.6590 C.3    90  DG90        0.2911
   1816  N9       -12.7800  -18.2830  -13.9730 N.pl3  90  DG90       -0.1302
   1817  C8       -12.2250  -19.2410  -14.7860 C.2    90  DG90        0.2799
   1818  N7       -11.2050  -19.8490  -14.2450 N.2    90  DG90       -0.2096
   1819  C5       -11.0780  -19.2620  -13.0000 C.3    90  DG90        0.3072
   1820  C6       -10.1480  -19.5040  -11.9560 C.2    90  DG90        0.3535
   1821  O6        -9.2180  -20.3200  -11.9320 O.2    90  DG90       -0.2506
   1822  N1       -10.3730  -18.6800  -10.8560 N.am   90  DG90        0.0136
   1823  C2       -11.3720  -17.7400  -10.7730 C.2    90  DG90        0.5244
   1824  N2       -11.4330  -17.0420   -9.6300 N.pl3  90  DG90        0.1572
   1825  N3       -12.2430  -17.5040  -11.7340 N.2    90  DG90        0.0290
   1826  C4       -12.0430  -18.2910  -12.8120 C.2    90  DG90        0.3467
   1827  P        -12.9300  -13.3850  -16.1040 P.3    91  DC91        0.2141
   1828  OP1      -13.5590  -12.1430  -16.6040 O.3    91  DC91       -0.4373
   1829  OP2      -11.8440  -14.0250  -16.8810 O.2    91  DC91       -0.5172
   1830  O5'      -12.2840  -13.1190  -14.6620 O.3    91  DC91       -0.3114
   1831  C5'      -13.0310  -12.4390  -13.6640 C.3    91  DC91        0.1811
   1832  C4'      -12.2730  -12.2970  -12.3660 C.3    91  DC91        0.1746
   1833  O4'      -12.0270  -13.6050  -11.7870 O.3    91  DC91       -0.3327
   1834  C3'      -10.8790  -11.6960  -12.4470 C.3    91  DC91        0.1558
   1835  O3'      -10.8600  -10.2910  -12.5960 O.3    91  DC91       -0.3138
   1836  C2'      -10.2620  -12.1680  -11.1400 C.3    91  DC91        0.0866
   1837  C1'      -10.7930  -13.5980  -11.0930 C.3    91  DC91        0.2106
   1838  N1        -9.8990  -14.5820  -11.7650 N.ar   91  DC91       -0.2556
   1839  C2        -8.8360  -15.1350  -11.0400 C.ar   91  DC91        0.3531
   1840  O2        -8.6570  -14.7670   -9.8670 O.2    91  DC91       -0.2443
   1841  N3        -8.0380  -16.0520  -11.6370 N.ar   91  DC91       -0.1739
   1842  C4        -8.2670  -16.4170  -12.8990 C.ar   91  DC91        0.1759
   1843  N4        -7.4540  -17.3230  -13.4450 N.pl3  91  DC91       -0.1070
   1844  C5        -9.3380  -15.8680  -13.6500 C.ar   91  DC91        0.0566
   1845  C6       -10.1250  -14.9630  -13.0570 C.ar   91  DC91        0.0849
   1846  P         -9.6540   -9.6960  -13.5860 P.3    92  DA92        0.2141
   1847  OP1       -9.9420   -8.2930  -14.0210 O.3    92  DA92       -0.4373
   1848  OP2       -9.1370  -10.6680  -14.5760 O.2    92  DA92       -0.5172
   1849  O5'       -8.6550   -9.6220  -12.3400 O.3    92  DA92       -0.3114
   1850  C5'       -7.3770   -9.1060  -12.6240 C.3    92  DA92        0.1811
   1851  C4'       -6.3990   -9.4680  -11.5300 C.3    92  DA92        0.1746
   1852  O4'       -6.7750  -10.6900  -10.8380 O.3    92  DA92       -0.3327
   1853  C3'       -5.0290   -9.7930  -12.0780 C.3    92  DA92        0.1558
   1854  O3'       -4.3280   -8.5890  -12.3220 O.3    92  DA92       -0.3138
   1855  C2'       -4.4400  -10.5910  -10.9350 C.3    92  DA92        0.0865
   1856  C1'       -5.6150  -11.4900  -10.6670 C.3    92  DA92        0.2094
   1857  N9        -5.6800  -12.7080  -11.4960 N.ar   92  DA92       -0.2714
   1858  C8        -6.5220  -12.9820  -12.5410 C.ar   92  DA92        0.1815
   1859  N7        -6.3610  -14.1800  -13.0500 N.ar   92  DA92       -0.2193
   1860  C5        -5.3430  -14.7310  -12.2880 C.ar   92  DA92        0.1518
   1861  C6        -4.7050  -15.9830  -12.3240 C.ar   92  DA92        0.1919
   1862  N6        -5.0160  -16.9460  -13.1950 N.pl3  92  DA92       -0.1054
   1863  N1        -3.7260  -16.2140  -11.4240 N.ar   92  DA92       -0.2040
   1864  C2        -3.4160  -15.2480  -10.5510 C.ar   92  DA92        0.2016
   1865  N3        -3.9440  -14.0330  -10.4180 N.ar   92  DA92       -0.2048
   1866  C4        -4.9120  -13.8350  -11.3280 C.ar   92  DA92        0.1691
   1867  P         -3.5240   -8.3210  -13.7310 P.3    93  DA93        0.2141
   1868  OP1       -3.0660   -6.9390  -14.0010 O.3    93  DA93       -0.4373
   1869  OP2       -3.9240   -9.1980  -14.8570 O.2    93  DA93       -0.5172
   1870  O5'       -2.3630   -9.1370  -12.9840 O.3    93  DA93       -0.3114
   1871  C5'       -1.5800   -8.5160  -11.9720 C.3    93  DA93        0.1811
   1872  C4'       -0.8570   -9.5190  -11.1040 C.3    93  DA93        0.1746
   1873  O4'       -1.7620  -10.5900  -10.7190 O.3    93  DA93       -0.3327
   1874  C3'        0.3220  -10.2520  -11.7310 C.3    93  DA93        0.1558
   1875  O3'        1.5190   -9.4910  -11.7690 O.3    93  DA93       -0.3138
   1876  C2'        0.4220  -11.4980  -10.8580 C.3    93  DA93        0.0865
   1877  C1'       -1.0550  -11.8080  -10.6180 C.3    93  DA93        0.2094
   1878  N9        -1.5780  -12.7250  -11.6480 N.ar   93  DA93       -0.2714
   1879  C8        -2.2120  -12.3300  -12.7970 C.ar   93  DA93        0.1815
   1880  N7        -2.5800  -13.3270  -13.5680 N.ar   93  DA93       -0.2193
   1881  C5        -2.1570  -14.4520  -12.8780 C.ar   93  DA93        0.1518
   1882  C6        -2.2480  -15.8260  -13.1640 C.ar   93  DA93        0.1919
   1883  N6        -2.8190  -16.3160  -14.2670 N.pl3  93  DA93       -0.1054
   1884  N1        -1.7250  -16.6880  -12.2660 N.ar   93  DA93       -0.2040
   1885  C2        -1.1530  -16.1970  -11.1610 C.ar   93  DA93        0.2016
   1886  N3        -1.0090  -14.9290  -10.7820 N.ar   93  DA93       -0.2048
   1887  C4        -1.5380  -14.0980  -11.6950 C.ar   93  DA93        0.1691
   1888  P          2.9010   -9.9590  -12.7890 P.3    94  DT94        0.2141
   1889  OP1        3.8420   -8.8380  -13.0990 O.3    94  DT94       -0.4373
   1890  OP2        1.7090  -10.2120  -13.6700 O.2    94  DT94       -0.5172
   1891  O5'        3.7680  -11.2960  -12.6960 O.3    94  DT94       -0.3114
   1892  C5'        4.8390  -11.3810  -11.7790 C.3    94  DT94        0.1811
   1893  C4'        4.7720  -12.6870  -11.0540 C.3    94  DT94        0.1746
   1894  O4'        3.4150  -13.1900  -11.1130 O.3    94  DT94       -0.3327
   1895  C3'        5.6100  -13.7940  -11.6590 C.3    94  DT94        0.1558
   1896  O3'        6.9200  -13.7280  -11.1400 O.3    94  DT94       -0.3138
   1897  C2'        4.8970  -15.0490  -11.1840 C.3    94  DT94        0.0866
   1898  C1'        3.4350  -14.6040  -11.2410 C.3    94  DT94        0.2106
   1899  N1         2.8650  -15.0060  -12.5570 N.ar   94  DT94       -0.2559
   1900  C2         2.6370  -16.3140  -12.9390 C.ar   94  DT94        0.3545
   1901  O2         3.0380  -17.2720  -12.3020 O.2    94  DT94       -0.2443
   1902  N3         1.9190  -16.4630  -14.1010 N.ar   94  DT94       -0.1533
   1903  C4         1.4180  -15.4580  -14.9020 C.ar   94  DT94        0.2804
   1904  O4         0.7900  -15.7490  -15.9170 O.2    94  DT94       -0.2654
   1905  C5         1.6980  -14.1280  -14.4390 C.ar   94  DT94        0.0534
   1906  C6         2.3940  -13.9540  -13.3120 C.ar   94  DT94        0.0824
   1907  C7         1.1960  -12.9650  -15.2420 C.3    94  DT94        0.0377
   1908  P          8.4470  -14.2540  -12.0210 P.3    95  DC95        0.2141
   1909  OP1        9.5730  -13.8440  -11.1530 O.3    95  DC95       -0.4373
   1910  OP2        8.5250  -14.1190  -13.4950 O.2    95  DC95       -0.5172
   1911  O5'        8.1050  -15.8020  -11.7730 O.3    95  DC95       -0.3114
   1912  C5'        7.5680  -16.2090  -10.5210 C.3    95  DC95        0.1811
   1913  C4'        6.9110  -17.5720  -10.5610 C.3    95  DC95        0.1767
   1914  O4'        5.7280  -17.5620  -11.4080 O.3    95  DC95       -0.3327
   1915  C3'        7.7470  -18.7270  -11.0960 C.3    95  DC95        0.1825
   1916  O3'        8.6460  -19.2560  -10.1340 O.3    95  DC95        0.0000
   1917  C2'        6.6970  -19.7390  -11.5410 C.3    95  DC95        0.0586
   1918  C1'        5.5060  -18.8560  -11.9280 C.3    95  DC95        0.2082
   1919  N1         5.3470  -18.8310  -13.3540 N.ar   95  DC95       -0.2557
   1920  C2         4.6090  -19.8350  -13.9920 C.ar   95  DC95        0.3531
   1921  O2         4.1750  -20.7810  -13.3130 O.2    95  DC95       -0.2443
   1922  N3         4.3930  -19.7470  -15.3260 N.ar   95  DC95       -0.1739
   1923  C4         4.8790  -18.7140  -16.0140 C.ar   95  DC95        0.1759
   1924  N4         4.6410  -18.6700  -17.3270 N.pl3  95  DC95       -0.1070
   1925  C5         5.6290  -17.6860  -15.3860 C.ar   95  DC95        0.0566
   1926  C6         5.8410  -17.7770  -14.0690 C.ar   95  DC95        0.0849
   1927  P          9.6800  -20.1780  -10.8510 P.3    96  DT96        0.3849
   1928  OP1        8.4740  -19.4640  -10.3530 O.3    96  DT96       -0.2981
   1929  OP2       10.8510  -20.3640   -9.9500 O.2    96  DT96       -0.2693
   1930  O5'        9.2570  -21.6160  -11.3970 O.3    96  DT96       -0.2176
   1931  C5'        8.5510  -22.5160  -10.5580 C.3    96  DT96        0.2140
   1932  C4'        7.8880  -23.6020  -11.3710 C.3    96  DT96        0.1783
   1933  O4'        8.8690  -24.6180  -11.7240 O.3    96  DT96       -0.3509
   1934  C3'        6.8400  -24.3540  -10.5680 C.3    96  DT96        0.1840
   1935  O3'        5.5900  -23.6810  -10.6000 O.3    96  DT96       -0.2204
   1936  C2'        6.8350  -25.7320  -11.2130 C.3    96  DT96        0.0676
   1937  C1'        8.3200  -25.9150  -11.5290 C.3    96  DT96        0.1450
   1938  N1         6.9880  -23.0640  -14.6490 N.2    96  DT96       -0.1608
   1939  C2         6.4160  -23.5320  -15.8160 C.1    96  DT96        0.2395
   1940  O2         5.8390  -24.6030  -15.8900 O.2    96  DT96       -0.2041
   1941  N3         6.5450  -22.7000  -16.9010 N.am   96  DT96       -0.0881
   1942  C4         7.1750  -21.4730  -16.9350 C.2    96  DT96        0.2768
   1943  O4         7.2090  -20.8390  -17.9870 O.2    96  DT96       -0.2676
   1944  C5         7.7440  -21.0570  -15.6850 C.2    96  DT96        0.0541
   1945  C6         7.6330  -21.8470  -14.6140 C.2    96  DT96        0.1126
   1946  C7         8.4520  -19.7360  -15.6200 C.3    96  DT96        0.0376
@<TRIPOS>BOND
     1  1376  1377    1
     2  1376  1375    1
     3  1393  1392    2
     4  1377  1378    1
     5  1377  1379    1
     6  1380  1379    1
     7  1380  1392    1
     8  1373  1372    2
     9  1378  1382    1
    10  1396  1395    1
    11  1396  1397    1
    12  1379  1381    1
    13  1392  1395    1
    14  1392  1394    1
    15  1375  1372    1
    16  1575  1574    2
    17  1361  1372    1
    18  1361  1360    1
    19  1372  1374    1
    20  1381  1382    1
    21  1382  1383    1
    22  1397  1398    1
    23  1397  1399    1
    24  1562  1574    1
    25  1562  1561    1
    26  1398  1402    1
    27  1362  1360    1
    28  1362  1363    1
    29  1559  1558    1
    30  1559  1561    1
    31  1559  1560    1
    32  1558  1557    1
    33  1574  1576    1
    34  1574  1577    1
    35  1360  1358    1
    36  1358  1359    1
    37  1358  1357    1
    38  1561  1563    1
    39  1400  1399    1
    40  1400  1412    1
    41  1383  1390   ar
    42  1383  1384   ar
    43  1560  1564    1
    44  1363  1359    1
    45  1363  1364    1
    46  1399  1401    1
    47  1555  1554    2
    48  1402  1401    1
    49  1402  1403    1
    50  1390  1389   ar
    51  1366  1365    2
    52  1357  1356    1
    53  1557  1554    1
    54  1577  1578    1
    55  1542  1554    1
    56  1542  1541    1
    57  1385  1384    2
    58  1543  1541    1
    59  1543  1544    1
    60  1564  1563    1
    61  1564  1565    1
    62  1554  1556    1
    63  1384  1386   ar
    64  1578  1579    1
    65  1410  1403   ar
    66  1410  1409   ar
    67  1403  1404   ar
    68  1364  1365   ar
    69  1364  1371   ar
    70  1412  1413    2
    71  1412  1415    1
    72  1412  1414    1
    73  1365  1367   ar
    74  1541  1539    1
    75  1547  1546    2
    76  1539  1540    1
    77  1539  1538    1
    78  1544  1540    1
    79  1544  1545    1
    80  1389  1391    1
    81  1389  1387   ar
    82  1415  1416    1
    83  1356  1353    1
    84  1567  1566    2
    85  1411  1409    1
    86  1409  1407   ar
    87  1350  1349    1
    88  1404  1405    2
    89  1404  1406   ar
    90  1565  1566   ar
    91  1565  1572   ar
    92  1354  1353    2
    93  1579  1580    1
    94  1579  1581    1
    95  1580  1584    1
    96  1386  1387   ar
    97  1371  1370   ar
    98  1566  1568   ar
    99  1538  1537    1
   100  1367  1368   ar
   101  1546  1545   ar
   102  1546  1548   ar
   103  1387  1388    2
   104  1418  1422    1
   105  1418  1417    1
   106  1545  1552   ar
   107  1531  1532   ar
   108  1531  1530   ar
   109  1353  1339    1
   110  1353  1355    1
   111  1572  1571   ar
   112  1406  1407   ar
   113  1407  1408    2
   114  1424  1425   ar
   115  1424  1423   ar
   116  1586  1587   ar
   117  1586  1585   ar
   118  1349  1351   ar
   119  1349  1348   ar
   120  1532  1533   ar
   121  1416  1417    1
   122  1425  1426   ar
   123  1422  1423    1
   124  1422  1421    1
   125  1417  1419    1
   126  1530  1528   ar
   127  1584  1585    1
   128  1584  1583    1
   129  1351  1352   ar
   130  1370  1368   ar
   131  1581  1582    1
   132  1581  1583    1
   133  1368  1369    1
   134  1339  1338    1
   135  1587  1588   ar
   136  1340  1338    1
   137  1340  1341    1
   138  1423  1432   ar
   139  1568  1569   ar
   140  1548  1549   ar
   141  1348  1346   ar
   142  1582  1595    1
   143  1537  1534    1
   144  1596  1595    2
   145  1585  1594   ar
   146  1552  1551   ar
   147  1571  1569   ar
   148  1571  1573    1
   149  1426  1432   ar
   150  1426  1427   ar
   151  1522  1523    1
   152  1522  1520    1
   153  1533  1524   ar
   154  1533  1527   ar
   155  1338  1336    1
   156  1432  1431   ar
   157  1595  1597    1
   158  1595  1598    1
   159  1569  1570    2
   160  1428  1427    1
   161  1428  1510    1
   162  1428  1511    1
   163  1523  1524    1
   164  1523  1519    1
   165  1535  1534    2
   166  1352  1342   ar
   167  1352  1345   ar
   168  1421  1419    1
   169  1764  1763    2
   170  1341  1342    1
   171  1341  1337    1
   172  1427  1429   ar
   173  1528  1527   ar
   174  1528  1529    1
   175  1588  1594   ar
   176  1588  1589   ar
   177  1419  1420    1
   178  1346  1345   ar
   179  1346  1347    2
   180  1549  1551   ar
   181  1549  1550    2
   182  1594  1593   ar
   183  1521  1534    1
   184  1521  1520    1
   185  1510  1509    1
   186  1510  1511    1
   187  1534  1536    1
   188  1551  1553    1
   189  1509  1507    2
   190  1786  1785    2
   191  1524  1525   ar
   192  1527  1526   ar
   193  1336  1337    1
   194  1336  1335    1
   195  1342  1343   ar
   196  1520  1518    1
   197  1431  1430   ar
   198  1345  1344   ar
   199  1519  1518    1
   200  1429  1430   ar
   201  1590  1589    1
   202  1589  1591   ar
   203  1420  1433    1
   204  1598  1599    1
   205  1518  1517    1
   206  1511  1512    1
   207  1599  1600    1
   208  1593  1592   ar
   209  1785  1787    1
   210  1785  1771    1
   211  1785  1788    1
   212  1763  1766    1
   213  1763  1750    1
   214  1763  1765    1
   215  1507  1508    1
   216  1507  1506    1
   217  1767  1766    1
   218  1767  1768    1
   219  1452  1450    1
   220  1601  1600    1
   221  1601  1605    1
   222  1525  1526   ar
   223  1343  1344   ar
   224  1607  1608   ar
   225  1607  1606   ar
   226  1335  1334    1
   227  1608  1609   ar
   228  1771  1770    1
   229  1806  1805    2
   230  1750  1749    1
   231  1436  1433    1
   232  1436  1437    1
   233  1591  1592   ar
   234  1450  1448   ar
   235  1450  1451   ar
   236  1449  1448    2
   237  1600  1602    1
   238  1433  1435    2
   239  1433  1434    1
   240  1439  1438    1
   241  1439  1443    1
   242  1512  1506   ar
   243  1512  1503   ar
   244  1448  1447   ar
   245  1451  1444   ar
   246  1328  1327   ar
   247  1328  1329   ar
   248  1437  1438    1
   249  1768  1770    1
   250  1768  1769    1
   251  1506  1505   ar
   252  1517  1516    1
   253  1334  1331    1
   254  1327  1325   ar
   255  1606  1605    1
   256  1606  1616   ar
   257  1605  1604    1
   258  1788  1789    1
   259  1789  1790    1
   260  1770  1772    1
   261  1447  1445   ar
   262  1444  1445   ar
   263  1444  1443    1
   264  1807  1805    1
   265  1609  1616   ar
   266  1609  1610   ar
   267  1805  1793    1
   268  1805  1808    1
   269  1329  1330   ar
   270  1445  1446    1
   271  1746  1747    1
   272  1746  1745    1
   273  1438  1440    1
   274  1443  1442    1
   275  1743  1742    2
   276  1611  1610    2
   277  1516  1513    1
   278  1749  1747    1
   279  1749  1751    1
   280  1747  1748    1
   281  1793  1792    1
   282  1602  1604    1
   283  1602  1603    1
   284  1501  1502    1
   285  1501  1499    1
   286  1616  1615   ar
   287  1503  1502    1
   288  1503  1504   ar
   289  1446  1502    1
   290  1610  1612   ar
   291  1325  1326    1
   292  1325  1324   ar
   293  1332  1331    2
   294  1769  1773    1
   295  1744  1742    1
   296  1502  1498    1
   297  1505  1504   ar
   298  1331  1333    1
   299  1331  1318    1
   300  1790  1792    1
   301  1790  1791    1
   302  1751  1752    1
   303  1330  1324   ar
   304  1330  1321   ar
   305  1772  1773    1
   306  1319  1320    1
   307  1319  1317    1
   308  1943  1942    2
   309  1742  1745    1
   310  1742  1729    1
   311  1792  1794    1
   312  1808  1809    1
   313  1603  1617    1
   314  1324  1323   ar
   315  1619  1617    2
   316  1440  1442    1
   317  1440  1441    1
   318  1748  1752    1
   319  1318  1317    1
   320  1809  1810    1
   321  1729  1728    1
   322  1615  1613   ar
   323  1924  1923    1
   324  1773  1774    1
   325  1612  1613   ar
   326  1499  1500    1
   327  1499  1497    1
   328  1513  1500    1
   329  1513  1515    2
   330  1513  1514    1
   331  1321  1320    1
   332  1321  1322   ar
   333  1320  1316    1
   334  1317  1315    1
   335  1752  1753    1
   336  1617  1618    1
   337  1617  1620    1
   338  1469  1468    2
   339  1791  1795    1
   340  1942  1941   am
   341  1942  1944    1
   342  1941  1939   am
   343  1829  1827    2
   344  1498  1497    1
   345  1613  1614    1
   346  1812  1810    1
   347  1812  1813    1
   348  1812  1814    1
   349  1323  1322   ar
   350  1828  1827    1
   351  1441  1453    1
   352  1472  1470    1
   353  1810  1811    1
   354  1468  1470   ar
   355  1468  1467   ar
   356  1794  1795    1
   357  1775  1774   ar
   358  1775  1776   ar
   359  1774  1784   ar
   360  1497  1496    1
   361  1813  1827    1
   362  1470  1471   ar
   363  1827  1830    1
   364  1728  1730    1
   365  1728  1726    1
   366  1630  1629   ar
   367  1630  1631   ar
   368  1633  1632    1
   369  1467  1465   ar
   370  1923  1925   ar
   371  1923  1922   ar
   372  1730  1731    1
   373  1904  1903    2
   374  1940  1939    2
   375  1814  1815    1
   376  1795  1796    1
   377  1939  1938    2
   378  1753  1754   ar
   379  1753  1762   ar
   380  1316  1315    1
   381  1315  1314    1
   382  1620  1621    1
   383  1944  1946    1
   384  1944  1945    2
   385  1803  1796   ar
   386  1803  1802   ar
   387  1804  1802    1
   388  1629  1628   ar
   389  1726  1725    1
   390  1726  1727    1
   391  1471  1464   ar
   392  1465  1464   ar
   393  1465  1466    2
   394  1925  1926   ar
   395  1754  1755   ar
   396  1922  1920   ar
   397  1631  1632   ar
   398  1631  1637   ar
   399  1907  1905    1
   400  1632  1634   ar
   401  1776  1777   ar
   402  1464  1463    1
   403  1811  1815    1
   404  1725  1724    1
   405  1784  1783   ar
   406  1784  1777   ar
   407  1796  1797   ar
   408  1455  1453    2
   409  1621  1622    1
   410  1802  1800   ar
   411  1903  1905   ar
   412  1903  1902   ar
   413  1869  1867    2
   414  1762  1761   ar
   415  1762  1756   ar
   416  1496  1495    1
   417  1761  1760   ar
   418  1817  1818    2
   419  1817  1816    1
   420  1463  1459    1
   421  1463  1462    1
   422  1459  1458    1
   423  1495  1492    1
   424  1731  1727    1
   425  1731  1732    1
   426  1830  1831    1
   427  1453  1456    1
   428  1453  1454    1
   429  1815  1816    1
   430  1938  1945    1
   431  1783  1781   ar
   432  1628  1637   ar
   433  1628  1627    1
   434  1848  1846    2
   435  1314  1313    1
   436  1905  1906   ar
   437  1623  1622    1
   438  1623  1627    1
   439  1777  1778   ar
   440  1456  1457    1
   441  1637  1636   ar
   442  1755  1756   ar
   443  1657  1655    1
   444  1634  1635   ar
   445  1883  1882    1
   446  1818  1819    1
   447  1313  1310    1
   448  1902  1900   ar
   449  1926  1919   ar
   450  1847  1846    1
   451  1868  1867    1
   452  1920  1919   ar
   453  1920  1921    2
   454  1816  1826    1
   455  1654  1653    2
   456  1756  1757   ar
   457  1622  1624    1
   458  1722  1721    2
   459  1724  1721    1
   460  1740  1739   ar
   461  1740  1741   ar
   462  1760  1759   ar
   463  1867  1870    1
   464  1867  1854    1
   465  1797  1798    2
   466  1797  1799   ar
   467  1890  1888    2
   468  1831  1832    1
   469  1844  1845   ar
   470  1844  1842   ar
   471  1627  1626    1
   472  1846  1835    1
   473  1846  1849    1
   474  1800  1799   ar
   475  1800  1801    2
   476  1880  1881   ar
   477  1880  1879   ar
   478  1732  1741   ar
   479  1732  1733   ar
   480  1910  1908    2
   481  1843  1842    1
   482  1635  1636   ar
   483  1781  1782    1
   484  1781  1780   ar
   485  1494  1492    1
   486  1494  1481    1
   487  1458  1457    1
   488  1458  1460    1
   489  1462  1460    1
   490  1919  1918    1
   491  1906  1899   ar
   492  1492  1493    1
   493  1655  1653   ar
   494  1655  1656   ar
   495  1739  1738   ar
   496  1653  1652   ar
   497  1862  1861    1
   498  1741  1735   ar
   499  1882  1881   ar
   500  1882  1884   ar
   501  1778  1780   ar
   502  1778  1779    2
   503  1889  1888    1
   504  1845  1838   ar
   505  1859  1858   ar
   506  1859  1860   ar
   507  1624  1626    1
   508  1624  1625    1
   509  1819  1826    1
   510  1819  1820    1
   511  1870  1871    1
   512  1721  1723    1
   513  1721  1709    1
   514  1900  1899   ar
   515  1900  1901    2
   516  1260  1261    1
   517  1260  1258    1
   518  1842  1841   ar
   519  1881  1887   ar
   520  1757  1759   ar
   521  1757  1758    1
   522  1277  1276    1
   523  1277  1278    1
   524  1277  1279    1
   525  1826  1825    2
   526  1879  1878   ar
   527  1888  1891    1
   528  1888  1875    1
   529  1310  1311    1
   530  1310  1312    1
   531  1891  1892    1
   532  1276  1275    1
   533  1850  1849    1
   534  1850  1851    1
   535  1835  1834    1
   536  1278  1282    1
   537  1261  1257    1
   538  1261  1262    1
   539  1899  1898    1
   540  1256  1257    1
   541  1256  1258    1
   542  1256  1255    1
   543  1858  1857   ar
   544  1460  1461    1
   545  1733  1734   ar
   546  1481  1480    1
   547  1259  1258    1
   548  1259  1272    1
   549  1834  1832    1
   550  1834  1836    1
   551  1656  1649   ar
   552  1832  1833    1
   553  1640  1638    2
   554  1244  1243    2
   555  1861  1860   ar
   556  1861  1863   ar
   557  1854  1853    1
   558  1292  1291    2
   559  1860  1866   ar
   560  1884  1885   ar
   561  1652  1650   ar
   562  1280  1279    1
   563  1280  1291    1
   564  1738  1736   ar
   565  1853  1851    1
   566  1853  1855    1
   567  1625  1638    1
   568  1908  1911    1
   569  1908  1909    1
   570  1908  1896    1
   571  1735  1734   ar
   572  1735  1736   ar
   573  1871  1872    1
   574  1270  1269   ar
   575  1270  1271   ar
   576  1820  1821    2
   577  1820  1822    1
   578  1295  1281    1
   579  1295  1296    1
   580  1295  1294    1
   581  1918  1917    1
   582  1918  1914    1
   583  1282  1281    1
   584  1282  1283    1
   585  1299  1312    1
   586  1299  1298    1
   587  1279  1281    1
   588  1709  1708    1
   589  1833  1837    1
   590  1892  1893    1
   591  1911  1912    1
   592  1875  1874    1
   593  1838  1837    1
   594  1838  1839   ar
   595  1825  1823    1
   596  1874  1872    1
   597  1874  1876    1
   598  1638  1639    1
   599  1638  1641    1
   600  1933  1937    1
   601  1933  1932    1
   602  1255  1254    1
   603  1480  1478    1
   604  1480  1482    1
   605  1296  1298    1
   606  1296  1297    1
   607  1887  1878   ar
   608  1887  1886   ar
   609  1273  1272    2
   610  1895  1897    1
   611  1895  1896    1
   612  1895  1893    1
   613  1878  1877    1
   614  1841  1839   ar
   615  1241  1240    1
   616  1241  1237    1
   617  1241  1242    1
   618  1478  1477    1
   619  1478  1479    1
   620  1275  1272    1
   621  1851  1852    1
   622  1937  1936    1
   623  1857  1866   ar
   624  1857  1856    1
   625  1477  1476    1
   626  1269  1268   ar
   627  1649  1650   ar
   628  1649  1648    1
   629  1736  1737    1
   630  1863  1864   ar
   631  1914  1913    1
   632  1930  1931    1
   633  1932  1934    1
   634  1932  1931    1
   635  1298  1300    1
   636  1272  1274    1
   637  1650  1651    2
   638  1262  1271   ar
   639  1262  1263   ar
   640  1240  1238    1
   641  1866  1865   ar
   642  1710  1708    1
   643  1710  1711    1
   644  1243  1242   ar
   645  1243  1245   ar
   646  1898  1897    1
   647  1898  1894    1
   648  1461  1474    1
   649  1228  1229   ar
   650  1228  1227   ar
   651  1071  1070    2
   652  1936  1934    1
   653  1237  1236    1
   654  1885  1886   ar
   655  1271  1265   ar
   656  1836  1837    1
   657  1894  1893    1
   658  1872  1873    1
   659  1915  1928    1
   660  1476  1473    1
   661  1839  1840    2
   662  1145  1144    2
   663  1291  1294    1
   664  1291  1293    1
   665  1855  1856    1
   666  1876  1877    1
   667  1822  1823    2
   668  1927  1928    1
   669  1927  1929    2
   670  1852  1856    1
   671  1229  1230   ar
   672  1714  1713    2
   673  1708  1706    1
   674  1644  1648    1
   675  1644  1643    1
   676  1823  1824    1
   677  1873  1877    1
   678  1242  1249   ar
   679  1227  1225   ar
   680  1236  1238    1
   681  1236  1235    1
   682  1935  1934    1
   683  1913  1912    1
   684  1864  1865   ar
   685  1297  1301    1
   686  1283  1290   ar
   687  1283  1284   ar
   688  1254  1251    1
   689  1245  1246   ar
   690  1285  1284    2
   691  1641  1642    1
   692  1479  1483    1
   693  1648  1647    1
   694  1642  1643    1
   695  1268  1266   ar
   696  1482  1483    1
   697  1473  1474    1
   698  1473  1475    1
   699  1238  1239    1
   700  1263  1264   ar
   701  1239  1251    1
   702  1187  1188   ar
   703  1187  1185   ar
   704  1091  1090    2
   705  1186  1185    1
   706  1711  1712    1
   707  1711  1707    1
   708  1290  1289   ar
   709  1265  1266   ar
   710  1265  1264   ar
   711  1049  1048    2
   712  1144  1146   ar
   713  1144  1143   ar
   714  1284  1286   ar
   715  1252  1251    2
   716  1713  1712   ar
   717  1713  1715   ar
   718  1300  1301    1
   719  1070  1056    1
   720  1070  1072    1
   721  1070  1073    1
   722  1167  1166    1
   723  1483  1484    1
   724  1643  1645    1
   725  1706  1707    1
   726  1706  1705    1
   727  1204  1203    2
   728  1056  1055    1
   729  1092  1090    1
   730  1230  1224   ar
   731  1230  1221   ar
   732  1251  1253    1
   733  1188  1189   ar
   734  1301  1302    1
   735  1235  1234    1
   736  1266  1267    1
   737  1225  1224   ar
   738  1225  1226    1
   739  1146  1147   ar
   740  1249  1248   ar
   741  1185  1184   ar
   742  1712  1719   ar
   743  1205  1203   ar
   744  1205  1206   ar
   745  1715  1716   ar
   746  1246  1248   ar
   747  1246  1247    2
   748  1090  1078    1
   749  1090  1093    1
   750  1052  1053    1
   751  1052  1051    1
   752  1220  1221    1
   753  1220  1219    1
   754  1220  1216    1
   755  1074  1073    1
   756  1074  1075    1
   757  1647  1645    1
   758  1645  1646    1
   759  1203  1202   ar
   760  1224  1223   ar
   761  1142  1143   ar
   762  1142  1141   ar
   763  1143  1150   ar
   764  1221  1222   ar
   765  1207  1206    1
   766  1289  1287   ar
   767  1248  1250    1
   768  1705  1704    1
   769  1219  1217    1
   770  1286  1287   ar
   771  1166  1165   ar
   772  1166  1168   ar
   773  1165  1163   ar
   774  1053  1055    1
   775  1053  1054    1
   776  1048  1051    1
   777  1048  1037    1
   778  1048  1050    1
   779  1704  1701    1
   780  1234  1231    1
   781  1078  1077    1
   782  1055  1057    1
   783  1206  1208   ar
   784  1111  1109    2
   785  1189  1190   ar
   786  1037  1036    1
   787  1484  1491   ar
   788  1484  1485   ar
   789  1147  1148    1
   790  1147  1149   ar
   791  1719  1718   ar
   792  1302  1309   ar
   793  1302  1303   ar
   794  1716  1717    2
   795  1716  1718   ar
   796  1216  1215    1
   797  1184  1190   ar
   798  1184  1183   ar
   799  1486  1485    2
   800  1287  1288    1
   801  1309  1308   ar
   802  1093  1094    1
   803  1075  1077    1
   804  1075  1076    1
   805  1222  1223   ar
   806  1141  1140   ar
   807  1077  1079    1
   808  1718  1720    1
   809  1150  1149   ar
   810  1150  1140   ar
   811  1491  1490   ar
   812  1202  1201    1
   813  1202  1209   ar
   814  1698  1697    1
   815  1646  1658    1
   816  1190  1181   ar
   817  1215  1217    1
   818  1215  1214    1
   819  1128  1126    1
   820  1485  1487   ar
   821  1168  1169   ar
   822  1163  1164    2
   823  1163  1162   ar
   824  1304  1303    2
   825  1057  1058    1
   826  1217  1218    1
   827  1218  1231    1
   828  1201  1200    1
   829  1201  1197    1
   830  1054  1058    1
   831  1094  1095    1
   832  1303  1305   ar
   833  1200  1198    1
   834  1208  1209   ar
   835  1183  1182   ar
   836  1110  1109    1
   837  1038  1036    1
   838  1038  1039    1
   839  1701  1702    2
   840  1701  1703    1
   841  1701  1687    1
   842  1231  1232    2
   843  1231  1233    1
   844  1109  1098    1
   845  1109  1112    1
   846  1036  1034    1
   847  1659  1658    2
   848  1140  1139    1
   849  1125  1124    2
   850  1658  1660    1
   851  1658  1661    1
   852  1308  1306   ar
   853  1697  1696   ar
   854  1697  1699   ar
   855  1076  1080    1
   856  1034  1033    1
   857  1034  1035    1
   858  1098  1097    1
   859  1089  1087    1
   860  1058  1059    1
   861  1696  1694   ar
   862  1126  1124   ar
   863  1126  1127   ar
   864  1169  1162   ar
   865  1162  1161    1
   866  1490  1488   ar
   867  1181  1182   ar
   868  1181  1180    1
   869  1112  1113    1
   870  1214  1213    1
   871  1124  1123   ar
   872  1079  1080    1
   873  1487  1488   ar
   874  1097  1095    1
   875  1097  1099    1
   876  1131  1129    1
   877  1107  1108   ar
   878  1107  1105   ar
   879  1197  1196    1
   880  1088  1087   ar
   881  1088  1081   ar
   882  1305  1306   ar
   883  1033  1032    1
   884  1687  1686    1
   885  1095  1096    1
   886  1699  1700   ar
   887  1039  1035    1
   888  1039  1040    1
   889  1108  1101   ar
   890  1306  1307    1
   891  1087  1085   ar
   892  1661  1662    1
   893  1198  1199    1
   894  1198  1196    1
   895  1080  1081    1
   896  1139  1135    1
   897  1139  1138    1
   898  1488  1489    1
   899  1127  1120   ar
   900  1688  1686    1
   901  1688  1689    1
   902  1213  1210    1
   903  1030  1029    2
   904  1042  1041    2
   905  1694  1695    2
   906  1694  1693   ar
   907  1106  1105    1
   908  1180  1179    1
   909  1180  1176    1
   910  1059  1060   ar
   911  1059  1069   ar
   912    14    13    1
   913  1081  1082   ar
   914   116   117   ar
   915   116   115   ar
   916  1199  1210    1
   917  1113  1114    1
   918  1135  1134    1
   919  1196  1195    1
   920  1105  1104   ar
   921  1123  1121   ar
   922  1686  1684    1
   923  1060  1061   ar
   924  1096  1100    1
   925  1129  1130    1
   926  1129  1132    1
   927  1161  1160    1
   928  1161  1157    1
   929  1032  1029    1
   930  1700  1693   ar
   931  1700  1690   ar
   932  1179  1177    1
   933   117   118   ar
   934  1099  1100    1
   935   115   113   ar
   936  1693  1692   ar
   937   138   137    1
   938  1040  1041   ar
   939  1040  1047   ar
   940  1101  1100    1
   941  1101  1102   ar
   942  1138  1136    1
   943   147   146    1
   944   147   151    1
   945  1116  1117    1
   946  1116  1114    1
   947  1116  1118    1
   948    13    12   ar
   949    13    15   ar
   950  1085  1086    2
   951  1085  1084   ar
   952  1120  1121   ar
   953  1120  1119    1
   954  1041  1043   ar
   955    11    12   ar
   956    11    10   ar
   957   146   145    1
   958   146   148    1
   959  1133  1134    1
   960  1133  1132    1
   961  1662  1663    1
   962  1029  1031    1
   963  1029  1016    1
   964  1176  1175    1
   965   128   129    1
   966   128   126    1
   967  1069  1068   ar
   968  1069  1062   ar
   969  1210  1212    2
   970  1210  1211    1
   971  1153  1151    2
   972  1130  1117    1
   973   129   125    1
   974   129   130    1
   975  1121  1122    2
   976  1160  1158    1
   977  1157  1156    1
   978  1136  1134    1
   979  1136  1137    1
   980  1689  1690    1
   981  1689  1685    1
   982   166   165    1
   983   166   170    1
   984  1068  1066   ar
   985  1114  1115    1
   986    12    18   ar
   987   139   137   ar
   988   139   140   ar
   989  1690  1691   ar
   990  1082  1084   ar
   991  1082  1083    2
   992   145   144    1
   993   151   150    1
   994   151   152    1
   995    15    16   ar
   996  1664  1663    1
   997  1664  1668    1
   998  1061  1062   ar
   999  1104  1102   ar
  1000   125   124    1
  1001  1663  1665    1
  1002   137   136   ar
  1003  1115  1119    1
  1004  1676  1677   ar
  1005  1676  1675   ar
  1006  1677  1678   ar
  1007    10     9   ar
  1008  1118  1119    1
  1009   165   164    1
  1010   165   167    1
  1011  1195  1194    1
  1012  1684  1685    1
  1013  1684  1683    1
  1014   124   126    1
  1015   124   123    1
  1016  1102  1103    2
  1017  1194  1191    1
  1018   164   163    1
  1019  1692  1691   ar
  1020  1047  1046   ar
  1021   170   169    1
  1022   170   171    1
  1023   150   148    1
  1024  1062  1063   ar
  1025  1675  1673   ar
  1026   118   112   ar
  1027   118   109   ar
  1028  1177  1175    1
  1029  1177  1178    1
  1030   154   153    2
  1031  1172  1170    2
  1032   113   114    1
  1033   113   112   ar
  1034   127   126    1
  1035   127   141    1
  1036  1678  1669   ar
  1037  1678  1672   ar
  1038   149   148    1
  1039   149   160    1
  1040  1158  1156    1
  1041  1158  1159    1
  1042    18     9   ar
  1043    18    17   ar
  1044  1669  1670   ar
  1045  1669  1668    1
  1046  1043  1044   ar
  1047    16    17   ar
  1048   130   140   ar
  1049   130   131   ar
  1050   140   133   ar
  1051  1673  1672   ar
  1052  1673  1674    1
  1053     9     8    1
  1054  1066  1067    1
  1055  1066  1065   ar
  1056  1175  1174    1
  1057  1672  1671   ar
  1058  1016  1015    1
  1059   108   107    1
  1060   108   109    1
  1061   108   104    1
  1062  1156  1155    1
  1063   107   105    1
  1064   152   153   ar
  1065   152   159   ar
  1066  1137  1151    1
  1067  1151  1154    1
  1068  1151  1152    1
  1069  1670  1671   ar
  1070  1683  1682    1
  1071   112   111   ar
  1072   173   172    2
  1073  1668  1667    1
  1074   169   167    1
  1075  1155  1154    1
  1076   136   134   ar
  1077   153   155   ar
  1078  1173  1170    1
  1079  1173  1174    1
  1080   109   110   ar
  1081   144   141    1
  1082   171   172   ar
  1083   171   178   ar
  1084   123   122    1
  1085  1682  1679    1
  1086   163   160    1
  1087  1178  1191    1
  1088   167   168    1
  1089  1017  1015    1
  1090  1017  1018    1
  1091  1046  1044   ar
  1092   172   174   ar
  1093  1063  1065   ar
  1094  1063  1064    2
  1095  1665  1666    1
  1096  1665  1667    1
  1097    35    34    2
  1098   160   161    2
  1099   160   162    1
  1100  1170  1159    1
  1101  1170  1171    1
  1102   168   180    1
  1103  1191  1193    2
  1104  1191  1192    1
  1105  1044  1045    1
  1106   141   142    2
  1107   141   143    1
  1108   178   177   ar
  1109  1666  1681    1
  1110   159   158   ar
  1111  1015  1013    1
  1112    92    91    2
  1113   131   132   ar
  1114   104   103    1
  1115   133   134   ar
  1116   133   132   ar
  1117     4     8    1
  1118     4     3    1
  1119  1679  1681    1
  1120  1679  1680    1
  1121  1026  1027   ar
  1122  1026  1025   ar
  1123     8     7    1
  1124    56    57   ar
  1125    56    54   ar
  1126   134   135    2
  1127  1027  1028   ar
  1128   155   156   ar
  1129    34    33   ar
  1130    34    36   ar
  1131   105   103    1
  1132   105   106    1
  1133   111   110   ar
  1134   186   185    1
  1135   186   190    1
  1136   122   119    1
  1137   174   175   ar
  1138    33    31   ar
  1139   103   102    1
  1140   106   119    1
  1141  1025  1023   ar
  1142    57    58   ar
  1143   177   175   ar
  1144   177   179    1
  1145    55    54    1
  1146     2     3    1
  1147     2     1    1
  1148   184   185    1
  1149   184   183    1
  1150   185   187    1
  1151  1018  1019    1
  1152  1018  1014    1
  1153   158   156   ar
  1154    54    53   ar
  1155   175   176    2
  1156  1028  1019   ar
  1157  1028  1022   ar
  1158    91    93   ar
  1159    91    90   ar
  1160   190   191    1
  1161   190   189    1
  1162    38    36    1
  1163   156   157    1
  1164    36    37   ar
  1165  1013  1014    1
  1166  1013  1012    1
  1167   180   183    1
  1168   180   181    2
  1169   180   182    1
  1170  1023  1022   ar
  1171  1023  1024    1
  1172     3     5    1
  1173    31    32    2
  1174    31    30   ar
  1175    93    94   ar
  1176  1019  1020   ar
  1177  1022  1021   ar
  1178   119   120    2
  1179   119   121    1
  1180     7     5    1
  1181    58    59   ar
  1182   191   198   ar
  1183   191   192   ar
  1184    89    88    1
  1185    89    90    1
  1186    89    85    1
  1187    88    86    1
  1188    37    30   ar
  1189   102   101    1
  1190   198   197   ar
  1191    73    72    2
  1192  1011  1012    1
  1193  1011  1008    1
  1194     5     6    1
  1195   193   192    2
  1196    30    29    1
  1197   189   187    1
  1198    53    59   ar
  1199    53    52   ar
  1200  1020  1021   ar
  1201   192   194   ar
  1202    90    97   ar
  1203   187   188    1
  1204    59    50   ar
  1205  1009  1008    2
  1206   197   199    1
  1207   197   195   ar
  1208   188   200    1
  1209    94    95    1
  1210    94    96   ar
  1211   194   195   ar
  1212    74    72   ar
  1213    74    75   ar
  1214    85    84    1
  1215    72    71   ar
  1216  1008  1010    1
  1217  1008   996    1
  1218   101    98    1
  1219   195   196    2
  1220    29    25    1
  1221    29    28    1
  1222    52    51   ar
  1223    25    24    1
  1224    50    51   ar
  1225    50    49    1
  1226    86    84    1
  1227    86    87    1
  1228     6    19    1
  1229    97    96   ar
  1230    76    75    1
  1231    84    83    1
  1232   204   203    1
  1233   204   205    1
  1234    75    77   ar
  1235    87    98    1
  1236    21    19    2
  1237    71    70    1
  1238    71    78   ar
  1239    49    45    1
  1240    49    48    1
  1241   206   205    1
  1242   206   210    1
  1243    70    69    1
  1244    70    66    1
  1245   201   200    2
  1246   200   203    1
  1247   200   202    1
  1248    98   100    2
  1249    98    99    1
  1250    28    26    1
  1251   205   207    1
  1252   996   995    1
  1253    22    19    1
  1254    22    23    1
  1255    19    20    1
  1256   868   867    2
  1257    69    67    1
  1258    24    23    1
  1259    24    26    1
  1260   997   995    1
  1261   997   998    1
  1262    45    44    1
  1263    77    78   ar
  1264   847   846    2
  1265  1001  1000    2
  1266    66    65    1
  1267   995   993    1
  1268    83    82    1
  1269    48    46    1
  1270    26    27    1
  1271   210   211    1
  1272   210   209    1
  1273  1002  1000   ar
  1274  1002  1003   ar
  1275  1000   999   ar
  1276   212   211   ar
  1277   212   213   ar
  1278  1004  1003    2
  1279  1003  1005   ar
  1280   211   220   ar
  1281    82    79    1
  1282   999   998    1
  1283   999  1006   ar
  1284   850   851    1
  1285   850   849    1
  1286   867   854    1
  1287   867   869    1
  1288   867   870    1
  1289   207   209    1
  1290   207   208    1
  1291   213   214   ar
  1292    65    67    1
  1293    65    64    1
  1294   998   994    1
  1295    67    68    1
  1296   854   853    1
  1297    44    46    1
  1298    44    43    1
  1299  1005  1006   ar
  1300  1005  1007    1
  1301   846   849    1
  1302   846   834    1
  1303   846   848    1
  1304    46    47    1
  1305   220   214   ar
  1306   220   219   ar
  1307   208   221    1
  1308   993   994    1
  1309   993   992    1
  1310    68    79    1
  1311   214   215   ar
  1312    27    39    1
  1313   851   853    1
  1314   851   852    1
  1315    41    39    2
  1316   888   887    2
  1317   834   833    1
  1318    42    43    1
  1319    42    39    1
  1320   219   218   ar
  1321   870   871    1
  1322   992   991    1
  1323   871   872    1
  1324   853   855    1
  1325    79    81    2
  1326    79    80    1
  1327    39    40    1
  1328   991   988    1
  1329    64    63    1
  1330   215   216    1
  1331   215   217   ar
  1332    47    60    1
  1333   218   217   ar
  1334   852   856    1
  1335    63    60    1
  1336   984   983    2
  1337   887   889    1
  1338   887   875    1
  1339   887   890    1
  1340   221   222    2
  1341   221   224    1
  1342   221   223    1
  1343   990   988    2
  1344   827   826    2
  1345   833   831    1
  1346   833   835    1
  1347   875   874    1
  1348   855   856    1
  1349   240   238    1
  1350   830   831    1
  1351   830   829    1
  1352   988   989    1
  1353   988   976    1
  1354   831   832    1
  1355   872   874    1
  1356   872   873    1
  1357   224   225    1
  1358   983   982   ar
  1359   983   985   ar
  1360    60    62    2
  1361    60    61    1
  1362   982   980   ar
  1363   890   891    1
  1364   856   857    1
  1365   835   836    1
  1366   874   876    1
  1367   238   239   ar
  1368   238   236   ar
  1369   987   985    1
  1370   237   236    2
  1371   405   404    2
  1372   829   826    1
  1373   985   986   ar
  1374   227   226    1
  1375   227   231    1
  1376   239   232   ar
  1377   236   235   ar
  1378   826   814    1
  1379   826   828    1
  1380   225   226    1
  1381   873   877    1
  1382   980   981    2
  1383   980   979   ar
  1384   891   892    1
  1385   408   409    1
  1386   408   407    1
  1387   832   836    1
  1388   886   884    1
  1389   909   907    2
  1390   908   907    1
  1391   976   975    1
  1392   391   404    1
  1393   391   390    1
  1394   425   424    2
  1395   814   813    1
  1396   409   410    1
  1397   409   411    1
  1398   836   837    1
  1399   986   979   ar
  1400   857   858   ar
  1401   857   866   ar
  1402   977   975    1
  1403   977   978    1
  1404   226   228    1
  1405   232   231    1
  1406   232   233   ar
  1407   235   233   ar
  1408   970   968    2
  1409   975   973    1
  1410   906   904    1
  1411   231   230    1
  1412   963   962    1
  1413   979   978    1
  1414   858   859   ar
  1415   885   884   ar
  1416   885   878   ar
  1417   412   411    1
  1418   412   424    1
  1419   404   407    1
  1420   404   406    1
  1421   907   895    1
  1422   907   910    1
  1423   876   877    1
  1424   233   234    2
  1425   392   390    1
  1426   392   393    1
  1427   388   390    1
  1428   388   387    1
  1429   388   389    1
  1430   884   882   ar
  1431   877   878    1
  1432   410   414    1
  1433   895   894    1
  1434   971   968    1
  1435   971   972    1
  1436   978   974    1
  1437   411   413    1
  1438   892   894    1
  1439   892   893    1
  1440   815   813    1
  1441   815   816    1
  1442   962   964   ar
  1443   962   961   ar
  1444   424   426    1
  1445   424   427    1
  1446   949   947    2
  1447   928   926    2
  1448   894   896    1
  1449   968   969    1
  1450   968   955    1
  1451   813   811    1
  1452   878   879   ar
  1453   387   386    1
  1454   960   961   ar
  1455   960   959   ar
  1456   866   865   ar
  1457   866   860   ar
  1458   393   389    1
  1459   393   394    1
  1460   837   844   ar
  1461   837   838   ar
  1462   904   905   ar
  1463   904   902   ar
  1464   859   860   ar
  1465   964   965   ar
  1466   228   230    1
  1467   228   229    1
  1468   961   967   ar
  1469   413   414    1
  1470   973   974    1
  1471   973   972    1
  1472   865   864   ar
  1473   905   898   ar
  1474   893   897    1
  1475   844   843   ar
  1476   260   258    1
  1477   414   415    1
  1478   257   256    2
  1479   811   810    1
  1480   811   812    1
  1481   839   838    2
  1482   910   911    1
  1483   942   941    1
  1484   428   427    1
  1485   428   429    1
  1486   959   958   ar
  1487   882   883    2
  1488   882   881   ar
  1489   927   926    1
  1490   860   861   ar
  1491   838   840   ar
  1492   948   947    1
  1493   402   401   ar
  1494   402   403   ar
  1495   926   929    1
  1496   926   915    1
  1497   947   950    1
  1498   947   934    1
  1499   816   812    1
  1500   816   817    1
  1501   965   966   ar
  1502   243   241    2
  1503   819   818    2
  1504   967   958   ar
  1505   967   966   ar
  1506   229   241    1
  1507   903   902    2
  1508   939   940   ar
  1509   939   938   ar
  1510   256   258   ar
  1511   256   255   ar
  1512   381   380   ar
  1513   381   382   ar
  1514   902   901   ar
  1515   879   881   ar
  1516   879   880    2
  1517   380   379   ar
  1518   950   951    1
  1519   371   372    1
  1520   371   369    1
  1521   810   809    1
  1522   258   259   ar
  1523   955   954    1
  1524   896   897    1
  1525   386   383    1
  1526   924   925   ar
  1527   924   922   ar
  1528   954   956    1
  1529   954   952    1
  1530   929   930    1
  1531   394   403   ar
  1532   394   395   ar
  1533   958   957    1
  1534   911   912    1
  1535   384   383    2
  1536   923   922    1
  1537   370   383    1
  1538   370   369    1
  1539   897   898    1
  1540   898   899   ar
  1541   843   845    1
  1542   843   841   ar
  1543   864   863   ar
  1544   941   940   ar
  1545   941   943   ar
  1546   401   400   ar
  1547   415   422   ar
  1548   415   416   ar
  1549   241   242    1
  1550   241   244    1
  1551   403   397   ar
  1552   625   624    2
  1553   422   421   ar
  1554   940   946   ar
  1555   938   937   ar
  1556   956   957    1
  1557   925   918   ar
  1558   429   430    1
  1559   429   431    1
  1560   255   253   ar
  1561   840   841   ar
  1562   922   921   ar
  1563   383   385    1
  1564   372   368    1
  1565   372   373    1
  1566   818   817   ar
  1567   818   820   ar
  1568   951   952    1
  1569   915   914    1
  1570   817   824   ar
  1571   369   367    1
  1572   259   252   ar
  1573   861   863   ar
  1574   861   862    1
  1575   914   912    1
  1576   914   916    1
  1577   379   377   ar
  1578   901   899   ar
  1579   957   953    1
  1580   934   933    1
  1581   943   944   ar
  1582   382   373   ar
  1583   382   376   ar
  1584   841   842    2
  1585   430   434    1
  1586   952   953    1
  1587   930   931    1
  1588   809   806    1
  1589   395   396   ar
  1590   899   900    2
  1591   367   368    1
  1592   367   366    1
  1593   933   931    1
  1594   933   935    1
  1595   244   245    1
  1596   912   913    1
  1597   645   644    2
  1598   373   374   ar
  1599   946   937   ar
  1600   946   945   ar
  1601   937   936    1
  1602   417   416    2
  1603   416   418   ar
  1604   253   252   ar
  1605   253   254    2
  1606   252   251    1
  1607   421   423    1
  1608   421   419   ar
  1609   400   398   ar
  1610   355   354    2
  1611   432   431    1
  1612   432   443    1
  1613   397   396   ar
  1614   397   398   ar
  1615   431   433    1
  1616   612   624    1
  1617   612   611    1
  1618   918   919   ar
  1619   918   917    1
  1620   624   626    1
  1621   624   627    1
  1622   247   251    1
  1623   247   246    1
  1624   277   276    1
  1625   921   919   ar
  1626   820   821   ar
  1627   824   823   ar
  1628   613   611    1
  1629   613   614    1
  1630   931   932    1
  1631   807   806    2
  1632   913   917    1
  1633   944   945   ar
  1634   916   917    1
  1635   935   936    1
  1636   245   246    1
  1637   377   376   ar
  1638   377   378    1
  1639   444   443    2
  1640   376   375   ar
  1641   442   441   ar
  1642   442   435   ar
  1643   628   627    1
  1644   628   629    1
  1645   932   936    1
  1646   398   399    1
  1647   617   616    2
  1648   251   250    1
  1649   806   795    1
  1650   806   808    1
  1651   800   799    2
  1652   919   920    2
  1653   366   365    1
  1654   434   433    1
  1655   434   435    1
  1656   296   295    1
  1657   418   419   ar
  1658   611   609    1
  1659   644   632    1
  1660   644   646    1
  1661   644   647    1
  1662   354   356   ar
  1663   354   353   ar
  1664   419   420    2
  1665   443   445    1
  1666   443   446    1
  1667   374   375   ar
  1668   246   248    1
  1669   441   439   ar
  1670   318   319   ar
  1671   318   316   ar
  1672   614   610    1
  1673   614   615    1
  1674   356   357   ar
  1675   823   821   ar
  1676   823   825    1
  1677   796   797    1
  1678   796   794    1
  1679   276   278   ar
  1680   276   275   ar
  1681   821   822    2
  1682   632   631    1
  1683   435   436   ar
  1684   335   334    2
  1685   351   352    1
  1686   351   349    1
  1687   297   295   ar
  1688   297   298   ar
  1689   319   320   ar
  1690   317   316    1
  1691   365   362    1
  1692   795   794    1
  1693   629   631    1
  1694   629   630    1
  1695   799   801   ar
  1696   799   798   ar
  1697   609   610    1
  1698   609   608    1
  1699   295   294   ar
  1700   278   279   ar
  1701   616   615   ar
  1702   616   618   ar
  1703   275   273   ar
  1704   248   250    1
  1705   248   249    1
  1706   801   802   ar
  1707   784   783    1
  1708   316   315   ar
  1709   647   648    1
  1710   353   352    1
  1711   353   360   ar
  1712   631   633    1
  1713   352   348    1
  1714   797   798    1
  1715   797   793    1
  1716   336   334   ar
  1717   336   337   ar
  1718   794   792    1
  1719   615   622   ar
  1720   598   597    2
  1721   334   333   ar
  1722   446   447    1
  1723   298   299   ar
  1724   357   358    2
  1725   357   359   ar
  1726   439   440    1
  1727   439   438   ar
  1728   350   349    1
  1729   350   362    1
  1730   320   321   ar
  1731   436   438   ar
  1732   436   437    2
  1733   798   805   ar
  1734   648   649    1
  1735   349   347    1
  1736   618   619   ar
  1737   782   783   ar
  1738   782   780   ar
  1739   630   634    1
  1740   263   261    2
  1741   294   293   ar
  1742   294   300   ar
  1743   279   272   ar
  1744   338   337    2
  1745   608   607    1
  1746   783   785   ar
  1747   273   272   ar
  1748   273   274    2
  1749   802   803    1
  1750   802   804   ar
  1751   249   261    1
  1752   337   339   ar
  1753   315   321   ar
  1754   315   314   ar
  1755   362   363    2
  1756   362   364    1
  1757   792   793    1
  1758   792   791    1
  1759   597   599    1
  1760   597   596    2
  1761   599   600    2
  1762   360   359   ar
  1763   293   292   ar
  1764   321   312   ar
  1765   348   347    1
  1766   299   300   ar
  1767   633   634    1
  1768   333   332    1
  1769   333   340   ar
  1770   359   361    1
  1771   781   780    2
  1772   622   621   ar
  1773   272   271    1
  1774   447   448    1
  1775   300   291   ar
  1776   332   331    1
  1777   332   328    1
  1778   347   346    1
  1779   780   779   ar
  1780   805   804   ar
  1781   607   604    1
  1782   634   635    1
  1783   649   650    1
  1784   649   651    1
  1785   785   786   ar
  1786   594   595    1
  1787   594   592    1
  1788   667   665    2
  1789   619   621   ar
  1790   619   620    2
  1791   331   329    1
  1792   261   264    1
  1793   261   262    1
  1794   595   591    1
  1795   314   313   ar
  1796   642   635   ar
  1797   642   641   ar
  1798   455   456   ar
  1799   455   454   ar
  1800   643   641    1
  1801   456   457   ar
  1802   449   448    1
  1803   449   453    1
  1804   601   600    1
  1805   339   340   ar
  1806   339   341    1
  1807   600   602    1
  1808   621   623    1
  1809   292   291   ar
  1810   596   603    1
  1811   791   790    1
  1812   312   313   ar
  1813   312   311    1
  1814   448   450    1
  1815   650   654    1
  1816   264   265    1
  1817   652   665    1
  1818   652   651    1
  1819   328   327    1
  1820   291   290    1
  1821   665   666    1
  1822   665   668    1
  1823   635   636   ar
  1824   271   267    1
  1825   271   270    1
  1826   779   786   ar
  1827   779   778   ar
  1828   651   653    1
  1829   790   787    1
  1830   786   776   ar
  1831   267   266    1
  1832   641   639   ar
  1833   760   759    1
  1834   346   345    1
  1835   311   310    1
  1836   311   307    1
  1837   761   759   ar
  1838   761   762   ar
  1839   604   593    1
  1840   604   606    2
  1841   604   605    1
  1842   454   453    1
  1843   454   464   ar
  1844   684   682    1
  1845   592   593    1
  1846   592   590    1
  1847   591   590    1
  1848   453   452    1
  1849   457   458   ar
  1850   457   464   ar
  1851   329   327    1
  1852   329   330    1
  1853   656   657   ar
  1854   656   655   ar
  1855   603   602    2
  1856   459   458    2
  1857   265   266    1
  1858   290   286    1
  1859   290   289    1
  1860   759   758   ar
  1861   327   326    1
  1862   310   308    1
  1863   467   465    2
  1864   450   452    1
  1865   450   451    1
  1866   344   342    2
  1867   778   777   ar
  1868   774   775    1
  1869   774   772    1
  1870   654   653    1
  1871   654   655    1
  1872   270   268    1
  1873   266   268    1
  1874   776   777   ar
  1875   776   775    1
  1876   345   342    1
  1877   458   460   ar
  1878   636   637    2
  1879   636   638   ar
  1880   762   763   ar
  1881   464   463   ar
  1882   590   589    1
  1883   657   658   ar
  1884   668   669    1
  1885   330   342    1
  1886   787   789    2
  1887   787   788    1
  1888   787   773    1
  1889   639   638   ar
  1890   639   640    2
  1891   268   269    1
  1892   655   664   ar
  1893   307   306    1
  1894   286   285    1
  1895   465   451    1
  1896   465   466    1
  1897   465   468    1
  1898   773   772    1
  1899   775   771    1
  1900   342   343    1
  1901   741   740    1
  1902   289   287    1
  1903   772   770    1
  1904   282   280    2
  1905   682   683   ar
  1906   682   680   ar
  1907   758   764   ar
  1908   758   757   ar
  1909   326   325    1
  1910   681   680    2
  1911   669   670    1
  1912   308   306    1
  1913   308   309    1
  1914   325   322    1
  1915   763   764   ar
  1916   460   461   ar
  1917   481   480    1
  1918   722   721    1
  1919   463   461   ar
  1920   283   280    1
  1921   283   284    1
  1922   658   664   ar
  1923   658   659   ar
  1924   306   305    1
  1925   683   676   ar
  1926   589   588    1
  1927   680   679   ar
  1928   701   700    1
  1929   664   663   ar
  1930   482   480   ar
  1931   482   483   ar
  1932   269   280    1
  1933   287   285    1
  1934   287   288    1
  1935   764   755   ar
  1936   757   756   ar
  1937   280   281    1
  1938   285   284    1
  1939   461   462    1
  1940   687   685    2
  1941   740   739   ar
  1942   740   742   ar
  1943   771   770    1
  1944   468   469    1
  1945   588   585    1
  1946   309   322    1
  1947   500   499    1
  1948   480   479   ar
  1949   770   769    1
  1950   303   301    2
  1951   579   578    2
  1952   483   476   ar
  1953   739   737   ar
  1954   721   723   ar
  1955   721   720   ar
  1956   670   671    1
  1957   670   672    1
  1958   322   324    2
  1959   322   323    1
  1960   304   305    1
  1961   304   301    1
  1962   659   660    1
  1963   659   661   ar
  1964   663   662   ar
  1965   671   675    1
  1966   469   470    1
  1967   742   743   ar
  1968   698   699   ar
  1969   698   697   ar
  1970   700   699   ar
  1971   700   702   ar
  1972   586   585    1
  1973   756   755   ar
  1974   672   673    1
  1975   672   674    1
  1976   676   675    1
  1977   676   677   ar
  1978   755   754    1
  1979   679   677   ar
  1980   288   301    1
  1981   685   686    1
  1982   685   673    1
  1983   685   688    1
  1984   723   724   ar
  1985   585   587    1
  1986   301   302    1
  1987   769   768    1
  1988   768   765    1
  1989   720   718   ar
  1990   479   477   ar
  1991   499   501   ar
  1992   499   498   ar
  1993   699   705   ar
  1994   578   580   ar
  1995   578   577   ar
  1996   580   581   ar
  1997   476   477   ar
  1998   476   475    1
  1999   575   576    1
  2000   575   573    1
  2001   702   703   ar
  2002   675   674    1
  2003   677   678    2
  2004   767   765    2
  2005   562   563   ar
  2006   562   560   ar
  2007   697   696   ar
  2008   662   661   ar
  2009   708   706    2
  2010   471   470    1
  2011   471   475    1
  2012   497   498   ar
  2013   497   496   ar
  2014   753   754    1
  2015   753   751    1
  2016   501   502   ar
  2017   737   738    2
  2018   737   736   ar
  2019   754   750    1
  2020   477   478    2
  2021   563   564   ar
  2022   470   472    1
  2023   498   504   ar
  2024   743   736   ar
  2025   724   717   ar
  2026   727   725    2
  2027   521   520    2
  2028   765   766    1
  2029   765   752    1
  2030   688   689    1
  2031   576   577    1
  2032   576   572    1
  2033   587   574    1
  2034   574   573    1
  2035   561   560    1
  2036   718   717   ar
  2037   718   719    2
  2038   577   584   ar
  2039   486   484    2
  2040   475   474    1
  2041   581   582    1
  2042   581   583   ar
  2043   705   696   ar
  2044   705   704   ar
  2045   736   735    1
  2046   560   559   ar
  2047   573   571    1
  2048   751   752    1
  2049   751   749    1
  2050   472   474    1
  2051   472   473    1
  2052   703   704   ar
  2053   696   695    1
  2054   717   716    1
  2055   496   495   ar
  2056   706   707    1
  2057   706   709    1
  2058   706   693    1
  2059   746   744    2
  2060   502   503   ar
  2061   709   710    1
  2062   750   749    1
  2063   564   565   ar
  2064   689   690    1
  2065   504   495   ar
  2066   504   503   ar
  2067   520   519   ar
  2068   520   522   ar
  2069   541   540    2
  2070   692   693    1
  2071   692   690    1
  2072   692   694    1
  2073   473   484    1
  2074   747   744    1
  2075   747   748    1
  2076   584   583   ar
  2077   519   517   ar
  2078   572   571    1
  2079   725   728    1
  2080   725   726    1
  2081   725   714    1
  2082   484   485    1
  2083   484   487    1
  2084   749   748    1
  2085   495   494    1
  2086   571   570    1
  2087   691   695    1
  2088   691   690    1
  2089   728   729    1
  2090   695   694    1
  2091   559   565   ar
  2092   559   558   ar
  2093   524   522    1
  2094   713   715    1
  2095   713   714    1
  2096   713   711    1
  2097   735   734    1
  2098   735   731    1
  2099   744   733    1
  2100   744   745    1
  2101   565   556   ar
  2102   716   715    1
  2103   716   712    1
  2104   522   523   ar
  2105   710   711    1
  2106   734   732    1
  2107   539   540   ar
  2108   539   537   ar
  2109   540   542   ar
  2110   712   711    1
  2111   732   733    1
  2112   732   730    1
  2113   731   730    1
  2114   487   488    1
  2115   517   518    2
  2116   517   516   ar
  2117   490   494    1
  2118   490   489    1
  2119   494   493    1
  2120   558   557   ar
  2121   538   537    2
  2122   570   569    1
  2123   730   729    1
  2124   523   516   ar
  2125   537   536   ar
  2126   556   557   ar
  2127   556   555    1
  2128   516   515    1
  2129   488   489    1
  2130   542   544    1
  2131   542   543   ar
  2132   489   491    1
  2133   554   555    1
  2134   554   552    1
  2135   555   551    1
  2136   569   566    1
  2137   493   491    1
  2138   491   492    1
  2139   568   566    2
  2140   536   543   ar
  2141   536   535    1
  2142   515   511    1
  2143   515   514    1
  2144   552   553    1
  2145   552   550    1
  2146   566   553    1
  2147   566   567    1
  2148   507   505    2
  2149   511   510    1
  2150   551   550    1
  2151   492   505    1
  2152   535   534    1
  2153   535   531    1
  2154   514   512    1
  2155   508   505    1
  2156   508   509    1
  2157   505   506    1
  2158   550   549    1
  2159   534   532    1
  2160   510   512    1
  2161   510   509    1
  2162   512   513    1
  2163   531   530    1
  2164   548   549    1
  2165   548   545    1
  2166   527   525    2
  2167   532   530    1
  2168   532   533    1
  2169   528   525    1
  2170   528   529    1
  2171   513   525    1
  2172   547   545    2
  2173   530   529    1
  2174   525   526    1
  2175   545   533    1
  2176   545   546    1
