@<TRIPOS>MOLECULE
dna.pdb
 1642 1844 0 0 0
SMALL
GASTEIGER

@<TRIPOS>ATOM
      1  O5'        0.2140   22.9710   19.5550 O.3     1  DA1        -0.2176
      2  C5'        0.6040   21.6990   20.0520 C.3     1  DA1         0.2141
      3  C4'        1.3260   21.7960   21.3750 C.3     1  DA1         0.1802
      4  O4'        0.4960   22.4690   22.3560 O.3     1  DA1        -0.3347
      5  C3'        1.6720   20.4660   22.0250 C.3     1  DA1         0.1858
      6  O3'        2.8750   19.9190   21.5170 O.3     1  DA1        -0.2202
      7  C2'        1.7330   20.8030   23.5120 C.3     1  DA1         0.0864
      8  C1'        0.6540   21.8790   23.6300 C.3     1  DA1         0.1975
      9  N9        -0.3060   21.6840   24.1090 N.pl3   1  DA1        -0.2458
     10  C8        -1.4920   21.7870   23.4310 C.2     1  DA1         0.1669
     11  N7        -2.5120   21.2580   24.0640 N.2     1  DA1        -0.2210
     12  C5        -1.9580   20.7740   25.2390 C.2     1  DA1         0.1864
     13  C6        -2.5150   20.1010   26.3410 C.2     1  DA1         0.3873
     14  N6        -3.8090   19.7900   26.4400 N.pl3   1  DA1         0.2116
     15  N1        -1.6850   19.7560   27.3490 N.pl3   1  DA1        -0.1431
     16  C2        -0.3890   20.0700   27.2490 C.2     1  DA1         0.2795
     17  N3         0.2510   20.6990   26.2660 N.2     1  DA1        -0.2058
     18  C4        -0.6000   21.0270   25.2800 C.3     1  DA1         0.2329
     19  P          2.8570   18.8100   20.1590 P.3     2  DG2         0.4149
     20  OP1        4.2300   18.9510   19.6180 O.2     2  DG2        -0.2668
     21  OP2        1.9990   17.6790   19.6840 O.3     2  DG2        -0.1481
     22  O5'        2.9320   18.6980   21.7460 O.3     2  DG2        -0.2177
     23  C5'        4.0180   19.2670   22.4560 C.3     2  DG2         0.2140
     24  C4'        4.1130   18.6490   23.8210 C.3     2  DG2         0.1776
     25  O4'        2.9610   19.0490   24.6160 O.3     2  DG2        -0.3326
     26  C3'        4.0660   17.1360   23.8520 C.3     2  DG2         0.1559
     27  O3'        5.3160   16.5520   23.5090 O.3     2  DG2        -0.3138
     28  C2'        3.5790   16.8550   25.2740 C.3     2  DG2         0.0865
     29  C1'        2.5890   18.0030   25.4890 C.3     2  DG2         0.2094
     30  N9         1.1540   17.6200   25.1590 N.ar    2  DG2        -0.2713
     31  C8         0.4070   17.8220   24.0240 C.ar    2  DG2         0.1816
     32  N7        -0.8010   17.3340   24.1090 N.ar    2  DG2        -0.2173
     33  C5        -0.8590   16.7790   25.3730 C.ar    2  DG2         0.1748
     34  C6        -1.9140   16.1020   26.0370 C.ar    2  DG2         0.3023
     35  O6        -3.0500   15.8540   25.6140 O.2     2  DG2        -0.2633
     36  N1        -1.5490   15.6970   27.3180 N.ar    2  DG2        -0.1709
     37  C2        -0.3180   15.9180   27.8890 C.ar    2  DG2         0.2606
     38  N2        -0.1540   15.4530   29.1350 N.pl3   2  DG2        -0.0859
     39  N3         0.6720   16.5440   27.2850 N.ar    2  DG2        -0.1918
     40  C4         0.3400   16.9450   26.0390 C.ar    2  DG2         0.1722
     41  P          5.3610   14.9610   23.1750 P.3     3  DC3         0.2141
     42  OP1        6.8110   14.7870   22.8920 O.3     3  DC3        -0.4373
     43  OP2        4.3680   14.8960   22.0650 O.2     3  DC3        -0.5172
     44  O5'        4.9520   13.9070   24.2860 O.3     3  DC3        -0.3114
     45  C5'        5.7730   13.7170   25.4240 C.3     3  DC3         0.1811
     46  C4'        5.0970   12.7880   26.3830 C.3     3  DC3         0.1746
     47  O4'        3.8900   13.4190   26.8820 O.3     3  DC3        -0.3327
     48  C3'        4.5650   11.5220   25.7500 C.3     3  DC3         0.1558
     49  O3'        5.5740   10.5610   25.5250 O.3     3  DC3        -0.3138
     50  C2'        3.5280   11.0920   26.7710 C.3     3  DC3         0.0866
     51  C1'        2.8850   12.4380   27.0720 C.3     3  DC3         0.2106
     52  N1         1.7980   12.7310   26.1450 N.ar    3  DC3        -0.2556
     53  C2         0.5300   12.2040   26.4150 C.ar    3  DC3         0.3531
     54  O2         0.3850   11.4760   27.4120 O.2     3  DC3        -0.2443
     55  N3        -0.4990   12.5000   25.5850 N.ar    3  DC3        -0.1739
     56  C4        -0.2970   13.2850   24.5260 C.ar    3  DC3         0.1759
     57  N4        -1.3400   13.5490   23.7370 N.pl3   3  DC3        -0.1070
     58  C5         0.9800   13.8290   24.2350 C.ar    3  DC3         0.0566
     59  C6         1.9930   13.5340   25.0570 C.ar    3  DC3         0.0849
     60  P          5.4410    9.6630   24.2300 P.3     4  DA4         0.2141
     61  OP1        6.6570    8.9230   23.8210 O.3     4  DA4        -0.4373
     62  OP2        4.7570   10.5620   23.2560 O.2     4  DA4        -0.5172
     63  O5'        4.4290    8.5820   24.7890 O.3     4  DA4        -0.3114
     64  C5'        4.7160    7.9840   26.0370 C.3     4  DA4         0.1811
     65  C4'        3.4880    7.3730   26.6350 C.3     4  DA4         0.1746
     66  O4'        2.4860    8.3990   26.8290 O.3     4  DA4        -0.3327
     67  C3'        2.7890    6.3920   25.7240 C.3     4  DA4         0.1558
     68  O3'        3.4050    5.1310   25.7770 O.3     4  DA4        -0.3138
     69  C2'        1.3850    6.3710   26.2930 C.3     4  DA4         0.0865
     70  C1'        1.1990    7.8390   26.6480 C.3     4  DA4         0.2094
     71  N9         0.4860    8.5530   25.6560 N.ar    4  DA4        -0.2714
     72  C8         1.0510    9.3880   24.7270 C.ar    4  DA4         0.1815
     73  N7         0.1780    9.9660   23.9360 N.ar    4  DA4        -0.2193
     74  C5        -1.0420    9.4780   24.3750 C.ar    4  DA4         0.1518
     75  C6        -2.3620    9.7080   23.9470 C.ar    4  DA4         0.1919
     76  N6        -2.6810   10.5240   22.9400 N.pl3   4  DA4        -0.1054
     77  N1        -3.3530    9.0620   24.5980 N.ar    4  DA4        -0.2040
     78  C2        -3.0320    8.2450   25.6080 C.ar    4  DA4         0.2016
     79  N3        -1.8310    7.9490   26.1010 N.ar    4  DA4        -0.2048
     80  C4        -0.8690    8.6060   25.4320 C.ar    4  DA4         0.1691
     81  P          3.5820    4.9200   24.8900 P.3     5  DG5         0.2141
     82  OP1        4.3210    3.6830   25.2250 O.3     5  DG5        -0.4373
     83  OP2        4.1390    5.8570   23.8870 O.2     5  DG5        -0.5172
     84  O5'        2.0960    4.5100   24.4470 O.3     5  DG5        -0.3114
     85  C5'        1.4160    3.4500   25.1110 C.3     5  DG5         0.1811
     86  C4'       -0.0790    3.4810   24.8390 C.3     5  DG5         0.1746
     87  O4'       -0.5830    4.8340   25.0030 O.3     5  DG5        -0.3327
     88  C3'       -0.5130    3.1030   23.4310 C.3     5  DG5         0.1558
     89  O3'       -0.5770    1.6920   23.2730 O.3     5  DG5        -0.3138
     90  C2'       -1.9060    3.7180   23.4090 C.3     5  DG5         0.0865
     91  C1'       -1.6360    5.0600   24.0830 C.3     5  DG5         0.2094
     92  N9        -1.1700    6.1380   23.1990 N.ar    5  DG5        -0.2713
     93  C8         0.1250    6.5660   23.0370 C.ar    5  DG5         0.1816
     94  N7         0.2410    7.5480   22.1850 N.ar    5  DG5        -0.2173
     95  C5        -1.0530    7.7870   21.7590 C.ar    5  DG5         0.1748
     96  C6        -1.5600    8.7340   20.8330 C.ar    5  DG5         0.3023
     97  O6        -0.9340    9.5810   20.1840 O.2     5  DG5        -0.2633
     98  N1        -2.9410    8.6350   20.6910 N.ar    5  DG5        -0.1709
     99  C2        -3.7360    7.7350   21.3590 C.ar    5  DG5         0.2606
    100  N2        -5.0480    7.7920   21.0910 N.pl3   5  DG5        -0.0859
    101  N3        -3.2790    6.8490   22.2220 N.ar    5  DG5        -0.1918
    102  C4        -1.9400    6.9250   22.3750 C.ar    5  DG5         0.1722
    103  P         -0.3320    1.0770   21.8130 P.3     6  DC6         0.2141
    104  OP1       -0.2640   -0.3450   22.2270 O.3     6  DC6        -0.4373
    105  OP2        0.8540    1.7660   21.2460 O.2     6  DC6        -0.5172
    106  O5'       -1.4590    1.2690   20.6920 O.3     6  DC6        -0.3114
    107  C5'       -2.7780    0.7970   20.9200 C.3     6  DC6         0.1811
    108  C4'       -3.7820    1.5500   20.0890 C.3     6  DC6         0.1746
    109  O4'       -3.6460    2.9660   20.3540 O.3     6  DC6        -0.3327
    110  C3'       -3.6090    1.4610   18.5820 C.3     6  DC6         0.1558
    111  O3'       -4.1520    0.2850   18.0270 O.3     6  DC6        -0.3138
    112  C2'       -4.3190    2.7120   18.0980 C.3     6  DC6         0.0866
    113  C1'       -3.9200    3.7040   19.1820 C.3     6  DC6         0.2106
    114  N1        -2.7640    4.5790   18.7910 N.ar    6  DC6        -0.2556
    115  C2        -2.9660    5.6630   17.9290 C.ar    6  DC6         0.3531
    116  O2        -4.1070    5.8660   17.4820 O.2     6  DC6        -0.2443
    117  N3        -1.9150    6.4550   17.6080 N.ar    6  DC6        -0.1739
    118  C4        -0.7070    6.1970   18.1110 C.ar    6  DC6         0.1759
    119  N4         0.2980    7.0050   17.7660 N.pl3   6  DC6        -0.1070
    120  C5        -0.4820    5.1040   18.9860 C.ar    6  DC6         0.0566
    121  C6        -1.5220    4.3240   19.3010 C.ar    6  DC6         0.0849
    122  P         -3.3180   -0.3620   16.9550 P.3     7  DA7         0.2141
    123  OP1       -4.1720   -1.5790   16.6380 O.2     7  DA7        -0.5172
    124  OP2       -1.9370   -0.5820   17.4420 O.3     7  DA7        -0.4373
    125  O5'       -3.6080    0.7530   15.8190 O.3     7  DA7        -0.3114
    126  C5'       -5.0190    0.7010   15.4340 C.3     7  DA7         0.1812
    127  C4'       -5.1900    1.6130   14.2500 C.3     7  DA7         0.1775
    128  O4'       -4.9580    2.9680   14.6150 O.3     7  DA7        -0.3326
    129  C3'       -4.3190    1.3900   13.0400 C.3     7  DA7         0.1864
    130  O3'       -4.7600    0.3360   12.1770 O.3     7  DA7        -0.1389
    131  C2'       -4.5150    2.7390   12.3150 C.3     7  DA7         0.0894
    132  C1'       -4.4690    3.7090   13.4660 C.3     7  DA7         0.2095
    133  N9        -3.0170    4.1610   13.7700 N.ar    7  DA7        -0.2714
    134  C8        -2.0650    3.6680   14.6240 C.ar    7  DA7         0.1815
    135  N7        -0.9170    4.3000   14.5580 N.ar    7  DA7        -0.2193
    136  C5        -1.1300    5.2740   13.5940 C.ar    7  DA7         0.1518
    137  C6        -0.2990    6.2750   13.0620 C.ar    7  DA7         0.1919
    138  N6         0.9660    6.4660   13.4430 N.pl3   7  DA7        -0.1054
    139  N1        -0.8190    7.0820   12.1120 N.ar    7  DA7        -0.2040
    140  C2        -2.0870    6.8900   11.7320 C.ar    7  DA7         0.2016
    141  N3        -2.9660    5.9860   12.1580 N.ar    7  DA7        -0.2048
    142  C4        -2.4180    5.2000   13.1000 C.ar    7  DA7         0.1691
    143  P         -3.6980   -0.2490   11.5730 P.3     8  DC8         0.4714
    144  OP1       -2.5100   -0.9950   12.0670 O.2     8  DC8        -0.2429
    145  OP2       -3.9510    1.1380   12.0370 O.3     8  DC8        -0.2126
    146  O5'       -3.6360   -0.0980    9.9720 O.3     8  DC8        -0.2823
    147  C5'       -4.8300    0.2120    9.2470 C.3     8  DC8         0.1839
    148  C4'       -4.7560    1.4880    8.4250 C.3     8  DC8         0.1747
    149  O4'       -4.2760    2.6110    9.2000 O.3     8  DC8        -0.3327
    150  C3'       -3.7650    1.4400    7.2710 C.3     8  DC8         0.1558
    151  O3'       -4.2680    0.7310    6.1460 O.3     8  DC8        -0.3138
    152  C2'       -3.6050    2.9040    6.9230 C.3     8  DC8         0.0866
    153  C1'       -3.6520    3.5450    8.3190 C.3     8  DC8         0.2106
    154  N1        -2.2890    3.7810    8.5990 N.ar    8  DC8        -0.2556
    155  C2        -1.6020    4.9010    8.1160 C.ar    8  DC8         0.3531
    156  O2        -2.1560    5.6240    7.2700 O.2     8  DC8        -0.2443
    157  N3        -0.3570    5.1620    8.5820 N.ar    8  DC8        -0.1739
    158  C4         0.1980    4.3580    9.4890 C.ar    8  DC8         0.1759
    159  N4         1.4270    4.6550    9.9190 N.pl3   8  DC8        -0.1070
    160  C5        -0.4820    3.2180    9.9910 C.ar    8  DC8         0.0566
    161  C6        -1.7110    2.9640    9.5280 C.ar    8  DC8         0.0849
    162  P         -3.2680   -0.2140    5.4220 P.3     9  DA9         0.2141
    163  OP1       -3.9660   -1.2850    4.6780 O.2     9  DA9        -0.5172
    164  OP2       -2.1540   -0.5320    6.3440 O.3     9  DA9        -0.4373
    165  O5'       -2.6200    0.8130    4.3820 O.3     9  DA9        -0.3114
    166  C5'       -3.4500    1.7920    3.7850 C.3     9  DA9         0.1811
    167  C4'       -2.7130    3.0910    3.5810 C.3     9  DA9         0.1746
    168  O4'       -1.9660    3.4410    4.7780 O.3     9  DA9        -0.3327
    169  C3'       -1.6360    3.0850    2.5130 C.3     9  DA9         0.1558
    170  O3'       -2.1330    3.1040    1.1880 O.3     9  DA9        -0.3138
    171  C2'       -0.8300    4.3190    2.8950 C.3     9  DA9         0.0865
    172  C1'       -0.8010    4.1610    4.4160 C.3     9  DA9         0.2094
    173  N9         0.3580    3.5140    4.8640 N.ar    9  DA9        -0.2714
    174  C8         0.3940    2.2280    5.3350 C.ar    9  DA9         0.1815
    175  N7         1.5750    1.8580    5.7730 N.ar    9  DA9        -0.2193
    176  C5         2.3680    2.9770    5.5750 C.ar    9  DA9         0.1518
    177  C6         3.7260    3.2320    5.8340 C.ar    9  DA9         0.1919
    178  N6         4.5570    2.3360    6.3720 N.pl3   9  DA9        -0.1054
    179  N1         4.2060    4.4530    5.5170 N.ar    9  DA9        -0.2040
    180  C2         3.3720    5.3510    4.9780 C.ar    9  DA9         0.2016
    181  N3         2.0780    5.2290    4.6890 N.ar    9  DA9        -0.2048
    182  C4         1.6330    4.0040    5.0150 C.ar    9  DA9         0.1691
    183  P         -1.2840    2.4480    0.1220 P.3    10  DG10        0.2141
    184  OP1       -2.3590    2.8710   -0.8110 O.2    10  DG10       -0.5172
    185  OP2       -0.8320    1.0310    0.2130 O.3    10  DG10       -0.4373
    186  O5'        0.0620    3.2610   -0.2060 O.3    10  DG10       -0.3114
    187  C5'        0.1060    4.5250   -0.8250 C.3    10  DG10        0.1811
    188  C4'        1.4250    5.1990   -0.4990 C.3    10  DG10        0.1746
    189  O4'        1.7790    5.0350    0.9070 O.3    10  DG10       -0.3327
    190  C3'        2.6460    4.6290   -1.1940 C.3    10  DG10        0.1558
    191  O3'        2.7280    4.9790   -2.5640 O.3    10  DG10       -0.3138
    192  C2'        3.7200    5.3330   -0.3920 C.3    10  DG10        0.0865
    193  C1'        3.1770    5.1560    1.0150 C.3    10  DG10        0.2094
    194  N9         3.7270    4.0490    1.6990 N.ar   10  DG10       -0.2713
    195  C8         3.0250    2.9010    1.9750 C.ar   10  DG10        0.1816
    196  N7         3.7120    2.0280    2.6610 N.ar   10  DG10       -0.2173
    197  C5         4.9400    2.6340    2.8530 C.ar   10  DG10        0.1748
    198  C6         6.1010    2.1730    3.5260 C.ar   10  DG10        0.3023
    199  O6         6.2720    1.0940    4.1070 O.2    10  DG10       -0.2633
    200  N1         7.1320    3.1070    3.4830 N.ar   10  DG10       -0.1709
    201  C2         7.0550    4.3340    2.8680 C.ar   10  DG10        0.2606
    202  N2         8.1530    5.0980    2.9330 N.pl3  10  DG10       -0.0859
    203  N3         5.9840    4.7750    2.2380 N.ar   10  DG10       -0.1918
    204  C4         4.9700    3.8840    2.2660 C.ar   10  DG10        0.1722
    205  P          3.4270    4.0210   -3.5810 P.3    11  DA11        0.2141
    206  OP1        2.8980    4.3640   -4.9200 O.2    11  DA11       -0.5172
    207  OP2        3.1270    2.7000   -2.9820 O.3    11  DA11       -0.4373
    208  O5'        5.0250    4.1220   -3.6170 O.3    11  DA11       -0.3114
    209  C5'        5.6400    5.3430   -3.9980 C.3    11  DA11        0.1811
    210  C4'        7.0900    5.3970   -3.5880 C.3    11  DA11        0.1746
    211  O4'        7.2050    5.1020   -2.1740 O.3    11  DA11       -0.3327
    212  C3'        8.0120    4.3930   -4.2600 C.3    11  DA11        0.1558
    213  O3'        8.4630    4.8290   -5.5320 O.3    11  DA11       -0.3138
    214  C2'        9.1350    4.2400   -3.2420 C.3    11  DA11        0.0865
    215  C1'        8.3640    4.3380   -1.9280 C.3    11  DA11        0.2094
    216  N9         7.9530    2.9240   -1.5080 N.ar   11  DA11       -0.2714
    217  C8         6.6800    2.4170   -1.4940 C.ar   11  DA11        0.1815
    218  N7         6.5890    1.2320   -0.9390 N.ar   11  DA11       -0.2193
    219  C5         7.8910    0.9400   -0.5640 C.ar   11  DA11        0.1518
    220  C6         8.4650   -0.1720    0.0760 C.ar   11  DA11        0.1919
    221  N6         7.7670   -1.2410    0.4680 N.pl3  11  DA11       -0.1054
    222  N1         9.7960   -0.1480    0.3030 N.ar   11  DA11       -0.2040
    223  C2        10.4940    0.9240   -0.0890 C.ar   11  DA11        0.2016
    224  N3        10.0680    2.0280   -0.6980 N.ar   11  DA11       -0.2048
    225  C4         8.7430    1.9730   -0.9090 C.ar   11  DA11        0.1691
    226  P          8.1110    4.0390   -6.4980 P.3    12  DG12        0.2141
    227  OP1        8.2740    4.9560   -7.6620 O.2    12  DG12       -0.5172
    228  OP2        7.4660    2.7060   -6.6710 O.3    12  DG12       -0.4373
    229  O5'        9.5210    3.7480   -5.8160 O.3    12  DG12       -0.3114
    230  C5'       10.7310    3.9150   -6.5460 C.3    12  DG12        0.1811
    231  C4'       11.7820    2.9290   -6.0840 C.3    12  DG12        0.1746
    232  O4'       11.4680    2.4390   -4.7580 O.3    12  DG12       -0.3327
    233  C3'       11.9670    1.6670   -6.9130 C.3    12  DG12        0.1558
    234  O3'       12.7880    1.9160   -8.0510 O.3    12  DG12       -0.3138
    235  C2'       12.6400    0.7220   -5.9160 C.3    12  DG12        0.0865
    236  C1'       11.9860    1.1340   -4.6020 C.3    12  DG12        0.2094
    237  N9        10.9130    0.3120   -4.2410 N.ar   12  DG12       -0.2713
    238  C8         9.5760    0.6220   -4.3080 C.ar   12  DG12        0.1816
    239  N7         8.7990   -0.3770   -3.9880 N.ar   12  DG12       -0.2173
    240  C5         9.6710   -1.4080   -3.6900 C.ar   12  DG12        0.1748
    241  C6         9.4170   -2.7420   -3.2800 C.ar   12  DG12        0.3023
    242  O6         8.3240   -3.2910   -3.0920 O.2    12  DG12       -0.2633
    243  N1        10.5940   -3.4590   -3.0840 N.ar   12  DG12       -0.1709
    244  C2        11.8590   -2.9540   -3.2620 C.ar   12  DG12        0.2606
    245  N2        12.8720   -3.7980   -3.0230 N.pl3  12  DG12       -0.0859
    246  N3        12.1110   -1.7170   -3.6430 N.ar   12  DG12       -0.1918
    247  C4        10.9830   -1.0020   -3.8400 C.ar   12  DG12        0.1722
    248  P         12.8600    0.7780   -9.3120 P.3    13  DG13        0.2141
    249  OP1       13.7810    1.3200  -10.3340 O.2    13  DG13       -0.5172
    250  OP2       11.4480    0.4960   -9.6630 O.3    13  DG13       -0.4373
    251  O5'       13.4300   -0.6290   -8.7970 O.3    13  DG13       -0.3114
    252  C5'       14.8300   -0.7710   -8.6170 C.3    13  DG13        0.1811
    253  C4'       15.1950   -2.0130   -7.8400 C.3    13  DG13        0.1746
    254  O4'       14.2860   -2.2110   -6.7260 O.3    13  DG13       -0.3327
    255  C3'       15.1370   -3.3380   -8.5810 C.3    13  DG13        0.1558
    256  O3'       16.2530   -3.5630   -9.4150 O.3    13  DG13       -0.3138
    257  C2'       15.0710   -4.3360   -7.4350 C.3    13  DG13        0.0865
    258  C1'       14.1780   -3.5900   -6.4460 C.3    13  DG13        0.2093
    259  N9        12.7260   -4.0150   -6.6250 N.ar   13  DG13       -0.2736
    260  C8        11.7170   -3.2350   -7.1360 C.ar   13  DG13        0.1814
    261  N7        10.5400   -3.7920   -7.0460 N.ar   13  DG13       -0.2177
    262  C5        10.7820   -5.0100   -6.4390 C.ar   13  DG13        0.1708
    263  C6         9.8940   -6.0560   -6.0800 C.2    13  DG13        0.3047
    264  O6         8.6670   -6.1060   -6.2350 O.2    13  DG13       -0.2648
    265  N1        10.5590   -7.1230   -5.4830 N.am   13  DG13       -0.0888
    266  C2        11.9140   -7.1770   -5.2600 C.3    13  DG13        0.3074
    267  N2        12.3730   -8.2890   -4.6710 N.3    13  DG13       -0.0972
    268  N3        12.7530   -6.2140   -5.5890 N.pl3  13  DG13       -0.1806
    269  C4        12.1290   -5.1670   -6.1710 C.ar   13  DG13        0.1567
    270  P         15.9940   -4.4560  -10.5700 P.3    14  DT14        0.2141
    271  OP1       17.0950   -4.8650  -11.4950 O.2    14  DT14       -0.5172
    272  OP2       14.7800   -3.7990  -11.1260 O.3    14  DT14       -0.4373
    273  O5'       15.4880   -5.7300   -9.7740 O.3    14  DT14       -0.3114
    274  C5'       16.3700   -6.4910   -8.9550 C.3    14  DT14        0.1811
    275  C4'       15.9270   -7.9310   -8.9390 C.3    14  DT14        0.1746
    276  O4'       14.6220   -7.9940   -8.2970 O.3    14  DT14       -0.3327
    277  C3'       15.7190   -8.5360  -10.3270 C.3    14  DT14        0.1558
    278  O3'       16.9080   -9.1230  -10.8780 O.3    14  DT14       -0.3138
    279  C2'       14.6200   -9.5660  -10.0950 C.3    14  DT14        0.0866
    280  C1'       13.7920   -8.9200   -8.9790 C.3    14  DT14        0.2106
    281  N1        12.5960   -8.1770   -9.3960 N.ar   14  DT14       -0.2559
    282  C2        11.4700   -8.9600   -9.5710 C.ar   14  DT14        0.3545
    283  O2        11.4420  -10.1500   -9.3130 O.2    14  DT14       -0.2443
    284  N3        10.3720   -8.2960  -10.0630 N.ar   14  DT14       -0.1533
    285  C4        10.2890   -6.9590  -10.3910 C.ar   14  DT14        0.2804
    286  O4         9.2310   -6.5060  -10.8220 O.2    14  DT14       -0.2654
    287  C5        11.4990   -6.2140  -10.1820 C.ar   14  DT14        0.0534
    288  C6        12.5810   -6.8340   -9.7050 C.ar   14  DT14        0.0824
    289  C7        11.5100   -4.7500  -10.5090 C.3    14  DT14        0.0377
    290  P         17.0740   -9.2560  -12.5030 P.3    15  DC15        0.2141
    291  OP1       18.4370   -9.4910  -13.0310 O.2    15  DC15       -0.5172
    292  OP2       16.3820   -7.9710  -12.7560 O.3    15  DC15       -0.4373
    293  O5'       16.0780  -10.3600  -13.0980 O.3    15  DC15       -0.3114
    294  C5'       16.3650  -11.7450  -12.9640 C.3    15  DC15        0.1811
    295  C4'       15.1140  -12.5790  -13.0760 C.3    15  DC15        0.1746
    296  O4'       14.1000  -12.0500  -12.1820 O.3    15  DC15       -0.3327
    297  C3'       14.4230  -12.5820  -14.4320 C.3    15  DC15        0.1558
    298  O3'       15.0240  -13.4460  -15.3810 O.3    15  DC15       -0.3138
    299  C2'       12.9980  -12.9720  -14.0680 C.3    15  DC15        0.0866
    300  C1'       12.8190  -12.2030  -12.7600 C.3    15  DC15        0.2106
    301  N1        12.1930  -10.8680  -12.9650 N.ar   15  DC15       -0.2556
    302  C2        10.8060  -10.7700  -13.1240 C.ar   15  DC15        0.3531
    303  O2        10.1300  -11.8130  -13.1330 O.2    15  DC15       -0.2443
    304  N3        10.2430   -9.5460  -13.2660 N.ar   15  DC15       -0.1739
    305  C4        11.0080   -8.4550  -13.2520 C.ar   15  DC15        0.1759
    306  N4        10.4090   -7.2700  -13.3940 N.pl3  15  DC15       -0.1070
    307  C5        12.4160   -8.5330  -13.0920 C.ar   15  DC15        0.0566
    308  C6        12.9670   -9.7430  -12.9530 C.ar   15  DC15        0.0849
    309  P         15.2880  -12.9320  -16.9660 P.3    16  DA16        0.2141
    310  OP1       16.1800  -13.7800  -17.7990 O.2    16  DA16       -0.5172
    311  OP2       15.1680  -11.4830  -17.2590 O.3    16  DA16       -0.4373
    312  O5'       13.8190  -13.5560  -16.9470 O.3    16  DA16       -0.3114
    313  C5'       12.9010  -13.3410  -18.0290 C.3    16  DA16        0.1811
    314  C4'       11.5340  -13.8730  -17.6740 C.3    16  DA16        0.1746
    315  O4'       10.9610  -13.1030  -16.5830 O.3    16  DA16       -0.3327
    316  C3'       10.5070  -13.7330  -18.7810 C.3    16  DA16        0.1558
    317  O3'       10.6360  -14.7870  -19.7230 O.3    16  DA16       -0.3138
    318  C2'        9.1910  -13.7890  -18.0190 C.3    16  DA16        0.0865
    319  C1'        9.5510  -13.0050  -16.7570 C.3    16  DA16        0.2094
    320  N9         9.1230  -11.6880  -16.9320 N.ar   16  DA16       -0.2714
    321  C8        10.0400  -10.6720  -16.8690 C.ar   16  DA16        0.1815
    322  N7         9.5040   -9.4740  -16.8850 N.ar   16  DA16       -0.2193
    323  C5         8.1420   -9.7210  -16.9650 C.ar   16  DA16        0.1518
    324  C6         7.0270   -8.8670  -17.0180 C.ar   16  DA16        0.1919
    325  N6         7.1150   -7.5350  -16.9960 N.pl3  16  DA16       -0.1054
    326  N1         5.8050   -9.4350  -17.0950 N.ar   16  DA16       -0.2040
    327  C2         5.7180  -10.7700  -17.1170 C.ar   16  DA16        0.2016
    328  N3         6.6910  -11.6770  -17.0720 N.ar   16  DA16       -0.2048
    329  C4         7.8930  -11.0800  -16.9960 C.ar   16  DA16        0.1691
    330  P         11.0890  -14.3970  -21.1050 P.3    17  DG17        0.2141
    331  OP1       11.6040  -15.7890  -21.1340 O.3    17  DG17       -0.4373
    332  OP2       11.7900  -13.1880  -21.6240 O.2    17  DG17       -0.5172
    333  O5'        9.8000  -14.5810  -21.9700 O.3    17  DG17       -0.3114
    334  C5'        8.9860  -15.5690  -21.5200 C.3    17  DG17        0.1811
    335  C4'        7.6090  -15.0070  -21.7460 C.3    17  DG17        0.1746
    336  O4'        7.4070  -13.9920  -20.7350 O.3    17  DG17       -0.3327
    337  C3'        7.3770  -14.1990  -22.9870 C.3    17  DG17        0.1558
    338  O3'        7.0640  -15.0060  -24.1200 O.3    17  DG17       -0.3138
    339  C2'        6.0740  -13.6130  -22.5570 C.3    17  DG17        0.0865
    340  C1'        6.2790  -13.3010  -21.1230 C.3    17  DG17        0.2094
    341  N9         6.5820  -11.8630  -20.9780 N.ar   17  DG17       -0.2713
    342  C8         7.8490  -11.3900  -20.7370 C.ar   17  DG17        0.1816
    343  N7         7.8990  -10.0920  -20.6120 N.ar   17  DG17       -0.2173
    344  C5         6.5890   -9.6810  -20.7770 C.ar   17  DG17        0.1748
    345  C6         6.0190   -8.3820  -20.7490 C.ar   17  DG17        0.3023
    346  O6         6.5890   -7.2990  -20.5640 O.2    17  DG17       -0.2633
    347  N1         4.6440   -8.4120  -20.9650 N.ar   17  DG17       -0.1709
    348  C2         3.9090   -9.5530  -21.1820 C.ar   17  DG17        0.2606
    349  N2         2.5940   -9.3820  -21.3690 N.pl3  17  DG17       -0.0859
    350  N3         4.4250  -10.7660  -21.2110 N.ar   17  DG17       -0.1918
    351  C4         5.7590  -10.7610  -21.0040 C.ar   17  DG17        0.1722
    352  P          7.1800  -14.5060  -25.5510 P.3    18  DA18        0.2141
    353  OP1        7.0990  -15.5120  -26.6350 O.2    18  DA18       -0.5172
    354  OP2        8.3130  -13.5590  -25.5090 O.3    18  DA18       -0.4373
    355  O5'        5.8980  -13.5480  -25.5870 O.3    18  DA18       -0.3114
    356  C5'        4.5800  -14.0140  -25.3270 C.3    18  DA18        0.1811
    357  C4'        3.6000  -12.8670  -25.3090 C.3    18  DA18        0.1746
    358  O4'        3.8740  -11.9960  -24.1810 O.3    18  DA18       -0.3327
    359  C3'        3.6530  -11.9550  -26.5220 C.3    18  DA18        0.1558
    360  O3'        2.8570  -12.4440  -27.5840 O.3    18  DA18       -0.3138
    361  C2'        3.1620  -10.6190  -25.9860 C.3    18  DA18        0.0865
    362  C1'        3.6740  -10.6450  -24.5490 C.3    18  DA18        0.2094
    363  N9         4.8980   -9.9250  -24.3660 N.ar   18  DA18       -0.2714
    364  C8         6.1700  -10.4290  -24.3040 C.ar   18  DA18        0.1815
    365  N7         7.0980   -9.5100  -24.1780 N.ar   18  DA18       -0.2193
    366  C5         6.3860   -8.3210  -24.1570 C.ar   18  DA18        0.1518
    367  C6         6.7890   -6.9790  -24.0430 C.ar   18  DA18        0.1919
    368  N6         8.0630   -6.5970  -23.9230 N.pl3  18  DA18       -0.1054
    369  N1         5.8270   -6.0320  -24.0570 N.ar   18  DA18       -0.2040
    370  C2         4.5510   -6.4160  -24.1760 C.ar   18  DA18        0.2016
    371  N3         4.0490   -7.6430  -24.2890 N.ar   18  DA18       -0.2048
    372  C4         5.0300   -8.5610  -24.2730 C.ar   18  DA18        0.1691
    373  P          3.2890  -12.1930  -28.8590 P.3    19  DT19        0.2141
    374  OP1        2.9970  -13.3850  -29.6890 O.2    19  DT19       -0.5172
    375  OP2        4.3210  -11.2210  -29.2840 O.3    19  DT19       -0.4373
    376  O5'        1.9670  -11.3150  -28.6610 O.3    19  DT19       -0.3114
    377  C5'        1.7420  -10.2730  -29.5900 C.3    19  DT19        0.1811
    378  C4'        1.2160   -9.0210  -28.9440 C.3    19  DT19        0.1746
    379  O4'        1.8420   -8.7890  -27.6560 O.3    19  DT19       -0.3327
    380  C3'        1.5450   -7.7470  -29.6970 C.3    19  DT19        0.1558
    381  O3'        0.8120   -7.5750  -30.8920 O.3    19  DT19       -0.3138
    382  C2'        1.3250   -6.6920  -28.6270 C.3    19  DT19        0.0866
    383  C1'        2.0260   -7.3970  -27.4680 C.3    19  DT19        0.2106
    384  N1         3.5800   -7.0200  -27.4710 N.ar   19  DT19       -0.2559
    385  C2         3.9790   -5.7590  -27.0700 C.ar   19  DT19        0.3545
    386  O2         3.2360   -4.7950  -27.0710 O.2    19  DT19       -0.2443
    387  N3         5.2890   -5.6670  -26.6640 N.ar   19  DT19       -0.1533
    388  C4         6.2180   -6.6850  -26.6220 C.ar   19  DT19        0.2804
    389  O4         7.3590   -6.4470  -26.2320 O.2    19  DT19       -0.2654
    390  C5         5.7270   -7.9630  -27.0550 C.ar   19  DT19        0.0534
    391  C6         4.4580   -8.0810  -27.4540 C.ar   19  DT19        0.0824
    392  C7         6.6630   -9.1350  -27.0460 C.3    19  DT19        0.0377
    393  P          1.5910   -7.6270  -32.2300 P.3    20  DG20        0.2141
    394  OP1        0.4590   -7.5560  -33.1890 O.2    20  DG20       -0.5172
    395  OP2        2.8510   -8.3200  -32.6250 O.3    20  DG20       -0.4373
    396  O5'        1.9390   -6.1540  -31.7380 O.3    20  DG20       -0.3114
    397  C5'        0.9030   -5.2900  -31.2770 C.3    20  DG20        0.1811
    398  C4'        1.4260   -3.8860  -31.1340 C.3    20  DG20        0.1746
    399  O4'        2.0410   -3.7140  -29.8260 O.3    20  DG20       -0.3327
    400  C3'        2.5080   -3.4990  -32.1280 C.3    20  DG20        0.1558
    401  O3'        1.9690   -3.1550  -33.4180 O.3    20  DG20       -0.3138
    402  C2'        3.1990   -2.3560  -31.3840 C.3    20  DG20        0.0865
    403  C1'        3.1710   -2.8600  -29.9360 C.3    20  DG20        0.2094
    404  N9         4.4660   -3.7580  -29.5930 N.ar   20  DG20       -0.2713
    405  C8         4.6220   -5.1220  -29.5310 C.ar   20  DG20        0.1816
    406  N7         5.8470   -5.4890  -29.2720 N.ar   20  DG20       -0.2173
    407  C5         6.5440   -4.3010  -29.1530 C.ar   20  DG20        0.1748
    408  C6         7.9150   -4.0580  -28.8790 C.ar   20  DG20        0.3023
    409  O6         8.8140   -4.8840  -28.6790 O.2    20  DG20       -0.2633
    410  N1         8.2060   -2.6970  -28.8480 N.ar   20  DG20       -0.1709
    411  C2         7.2900   -1.6940  -29.0560 C.ar   20  DG20        0.2606
    412  N2         7.7590   -0.4410  -28.9860 N.pl3  20  DG20       -0.0859
    413  N3         6.0140   -1.9040  -29.3130 N.ar   20  DG20       -0.1918
    414  C4         5.7080   -3.2190  -29.3480 C.ar   20  DG20        0.1722
    415  P          2.6010   -3.8490  -34.9660 P.3    21  DC21        0.2141
    416  OP1        1.5740   -3.4460  -35.9600 O.2    21  DC21       -0.5172
    417  OP2        3.2760   -5.1660  -35.0800 O.3    21  DC21       -0.4373
    418  O5'        3.7350   -2.7310  -34.8260 O.3    21  DC21       -0.3114
    419  C5'        3.5070   -1.3650  -35.1970 C.3    21  DC21        0.1811
    420  C4'        4.8240   -0.6030  -35.2860 C.3    21  DC21        0.1746
    421  O4'        5.4350   -0.5230  -33.9640 O.3    21  DC21       -0.3327
    422  C3'        5.8970   -1.2370  -36.1610 C.3    21  DC21        0.1558
    423  O3'        5.7860   -0.9110  -37.5430 O.3    21  DC21       -0.3138
    424  C2'        7.1940   -0.7200  -35.5510 C.3    21  DC21        0.0866
    425  C1'        6.8390   -0.6750  -34.0660 C.3    21  DC21        0.2106
    426  N1         7.2070   -1.8920  -33.3450 N.ar   21  DC21       -0.2556
    427  C2         8.4890   -1.9830  -32.7910 C.ar   21  DC21        0.3531
    428  O2         9.2560   -1.0110  -32.8980 O.2    21  DC21       -0.2443
    429  N3         8.8550   -3.1230  -32.1580 N.ar   21  DC21       -0.1739
    430  C4         7.9980   -4.1410  -32.0680 C.ar   21  DC21        0.1759
    431  N4         8.4040   -5.2440  -31.4360 N.pl3  21  DC21       -0.1070
    432  C5         6.6950   -4.0690  -32.6230 C.ar   21  DC21        0.0566
    433  C6         6.3370   -2.9410  -33.2470 C.ar   21  DC21        0.0849
    434  P          6.5940   -1.8930  -38.7170 P.3    22  DG22        0.2141
    435  OP1        6.0200   -1.4740  -40.0400 O.2    22  DG22       -0.5172
    436  OP2        6.0620   -3.0840  -38.0110 O.3    22  DG22       -0.4373
    437  O5'        8.1800   -1.9980  -38.8360 O.3    22  DG22       -0.3114
    438  C5'        8.9100   -0.8990  -39.3530 C.3    22  DG22        0.1811
    439  C4'       10.3320   -0.9470  -38.8950 C.3    22  DG22        0.1746
    440  O4'       10.3750   -1.0870  -37.4590 O.3    22  DG22       -0.3327
    441  C3'       11.1560   -2.0990  -39.4170 C.3    22  DG22        0.1558
    442  O3'       11.6750   -1.7140  -40.6750 O.3    22  DG22       -0.3138
    443  C2'       12.2610   -2.1850  -38.3750 C.3    22  DG22        0.0865
    444  C1'       11.5260   -1.8160  -37.0870 C.3    22  DG22        0.2094
    445  N9        11.0780   -3.0230  -36.3540 N.ar   22  DG22       -0.2713
    446  C8         9.8050   -3.5260  -36.2460 C.ar   22  DG22        0.1816
    447  N7         9.7320   -4.5880  -35.4900 N.ar   22  DG22       -0.2173
    448  C5        11.0330   -4.8000  -35.0720 C.ar   22  DG22        0.1748
    449  C6        11.5810   -5.8060  -34.2340 C.ar   22  DG22        0.3023
    450  O6        10.9940   -6.7410  -33.6760 O.2    22  DG22       -0.2633
    451  N1        12.9540   -5.6530  -34.0670 N.ar   22  DG22       -0.1709
    452  C2        13.7070   -4.6540  -34.6370 C.ar   22  DG22        0.2606
    453  N2        15.0180   -4.6710  -34.3590 N.pl3  22  DG22       -0.0859
    454  N3        13.2130   -3.7140  -35.4180 N.ar   22  DG22       -0.1918
    455  C4        11.8810   -3.8430  -35.5950 C.ar   22  DG22        0.1722
    456  P         12.6260   -2.7430  -41.5170 P.3    23  DA23        0.2141
    457  OP1       13.1310   -2.1310  -42.7680 O.2    23  DA23       -0.5172
    458  OP2       11.5890   -3.7960  -41.5760 O.3    23  DA23       -0.4373
    459  O5'       13.8390   -3.4370  -40.7270 O.3    23  DA23       -0.3114
    460  C5'       15.0090   -2.6980  -40.3960 C.3    23  DA23        0.1811
    461  C4'       15.9350   -3.4320  -39.4470 C.3    23  DA23        0.1746
    462  O4'       15.4100   -3.4910  -38.0910 O.3    23  DA23       -0.3327
    463  C3'       16.1940   -4.8910  -39.7620 C.3    23  DA23        0.1558
    464  O3'       17.0090   -5.0790  -40.9020 O.3    23  DA23       -0.3138
    465  C2'       16.7860   -5.3880  -38.4470 C.3    23  DA23        0.0865
    466  C1'       15.8610   -4.6800  -37.4580 C.3    23  DA23        0.2094
    467  N9        14.5930   -5.6800  -37.3180 N.ar   23  DA23       -0.2714
    468  C8        13.2970   -5.5350  -37.7400 C.ar   23  DA23        0.1815
    469  N7        12.4950   -6.4850  -37.3200 N.ar   23  DA23       -0.2193
    470  C5        13.3200   -7.3100  -36.5720 C.ar   23  DA23        0.1518
    471  C6        13.0760   -8.4950  -35.8570 C.ar   23  DA23        0.1919
    472  N6        11.8770   -9.0760  -35.7770 N.pl3  23  DA23       -0.1054
    473  N1        14.1190   -9.0690  -35.2200 N.ar   23  DA23       -0.2040
    474  C2        15.3200   -8.4850  -35.3010 C.ar   23  DA23        0.2016
    475  N3        15.6730   -7.3720  -35.9400 N.ar   23  DA23       -0.2048
    476  C4        14.6150   -6.8270  -36.5630 C.ar   23  DA23        0.1691
    477  P         16.3230   -5.3820  -41.8040 P.3    24  DT24        0.2141
    478  OP1       16.7230   -5.0470  -43.1900 O.2    24  DT24       -0.5172
    479  OP2       14.9060   -5.6590  -41.4680 O.3    24  DT24       -0.4373
    480  O5'       17.0820   -6.7140  -41.3460 O.3    24  DT24       -0.3114
    481  C5'       18.4160   -6.6460  -40.8710 C.3    24  DT24        0.1811
    482  C4'       18.8200   -7.9440  -40.2230 C.3    24  DT24        0.1746
    483  O4'       18.1820   -8.0860  -38.9280 O.3    24  DT24       -0.3327
    484  C3'       18.3920   -9.2020  -40.9550 C.3    24  DT24        0.1558
    485  O3'       19.1760   -9.4840  -42.0980 O.3    24  DT24       -0.3138
    486  C2'       18.4670  -10.2470  -39.8510 C.3    24  DT24        0.0866
    487  C1'       17.8850   -9.4480  -38.6900 C.3    24  DT24        0.2106
    488  N1        16.2380   -9.5370  -38.6760 N.ar   24  DT24       -0.2559
    489  C2        15.6990  -10.6780  -38.1130 C.ar   24  DT24        0.3545
    490  O2        16.3810  -11.5850  -37.6680 O.2    24  DT24       -0.2443
    491  N3        14.3260  -10.7220  -38.0880 N.ar   24  DT24       -0.1533
    492  C4        13.4570   -9.7600  -38.5600 C.ar   24  DT24        0.2804
    493  O4        12.2460   -9.9420  -38.4670 O.2    24  DT24       -0.2654
    494  C5        14.0930   -8.6060  -39.1310 C.ar   24  DT24        0.0534
    495  C6        15.4260   -8.5380  -39.1670 C.ar   24  DT24        0.0824
    496  C7        13.2320   -7.5030  -39.6730 C.3    24  DT24        0.0377
    497  P         18.3700   -9.4030  -43.4930 P.3    25  DC25        0.2141
    498  OP1       19.3990   -9.3670  -44.5600 O.2    25  DC25       -0.5172
    499  OP2       17.1720   -8.5290  -43.5920 O.3    25  DC25       -0.4373
    500  O5'       17.8990  -10.9080  -43.3500 O.3    25  DC25       -0.3114
    501  C5'       18.8560  -11.9290  -43.0580 C.3    25  DC25        0.1812
    502  C4'       18.1870  -13.2750  -43.0640 C.3    25  DC25        0.1775
    503  O4'       17.4870  -13.5100  -41.8090 O.3    25  DC25       -0.3326
    504  C3'       17.0910  -13.4370  -44.0940 C.3    25  DC25        0.1864
    505  O3'       17.5790  -13.4130  -45.4440 O.3    25  DC25       -0.2133
    506  C2'       16.3370  -14.6380  -43.5420 C.3    25  DC25        0.0895
    507  C1'       16.3380  -14.3140  -42.0500 C.3    25  DC25        0.2107
    508  N1        15.1590  -13.4730  -41.5310 N.ar   25  DC25       -0.2556
    509  C2        14.0870  -14.3590  -41.3750 C.ar   25  DC25        0.3531
    510  O2        14.3290  -15.5690  -41.2240 O.2    25  DC25       -0.2443
    511  N3        12.8220  -13.8750  -41.3950 N.ar   25  DC25       -0.1739
    512  C4        12.6100  -12.5680  -41.5610 C.ar   25  DC25        0.1759
    513  N4        11.3470  -12.1370  -41.5740 N.pl3  25  DC25       -0.1070
    514  C5        13.6830  -11.6540  -41.7210 C.ar   25  DC25        0.0566
    515  C6        14.9300  -12.1360  -41.7010 C.ar   25  DC25        0.0849
    516  P         17.7860  -14.9380  -46.2810 P.3    26  DT26        0.3939
    517  OP1       18.6750  -14.4540  -47.3650 O.3    26  DT26       -0.1425
    518  OP2       16.5560  -14.1850  -45.9200 O.3    26  DT26       -0.1496
    519  O5'       17.3770  -16.4370  -46.5710 O.3    26  DT26       -0.2926
    520  C5'       16.7530  -17.1860  -45.5580 C.3    26  DT26        0.1829
    521  C4'       15.4580  -17.7220  -46.0630 C.3    26  DT26        0.1775
    522  O4'       14.5270  -17.7510  -44.9490 O.3    26  DT26       -0.3326
    523  C3'       14.7900  -16.8230  -47.0800 C.3    26  DT26        0.1864
    524  O3'       15.3010  -17.1020  -48.3760 O.3    26  DT26       -0.2133
    525  C2'       13.3270  -17.2000  -46.9010 C.3    26  DT26        0.0895
    526  C1'       13.2520  -17.3090  -45.3760 C.3    26  DT26        0.2107
    527  N1        12.9790  -15.9120  -44.6840 N.ar   26  DT26       -0.2559
    528  C2        11.6400  -15.6850  -44.4280 C.ar   26  DT26        0.3545
    529  O2        10.7890  -16.5510  -44.5250 O.2    26  DT26       -0.2443
    530  N3        11.3300  -14.3990  -44.0550 N.ar   26  DT26       -0.1533
    531  C4        12.2050  -13.3420  -43.9150 C.ar   26  DT26        0.2804
    532  O4        11.7760  -12.2440  -43.5700 O.2    26  DT26       -0.2654
    533  C5        13.5760  -13.6570  -44.1990 C.ar   26  DT26        0.0534
    534  C6        13.9060  -14.8990  -44.5640 C.ar   26  DT26        0.0824
    535  C7        14.6050  -12.5720  -44.0760 C.3    26  DT26        0.0377
    536  P         15.0860  -15.9300  -49.4610 P.3    27  DG27        0.3939
    537  OP1       15.8120  -17.0970  -48.9160 O.3    27  DG27       -0.1496
    538  OP2       15.2180  -15.5910  -50.8930 O.3    27  DG27       -0.1425
    539  O5'       13.5180  -16.2170  -49.2870 O.3    27  DG27       -0.2926
    540  C5'       12.6580  -15.9320  -50.3840 C.3    27  DG27        0.1828
    541  C4'       11.3670  -16.7170  -50.3650 C.3    27  DG27        0.1747
    542  O4'       11.6450  -18.1200  -50.6360 O.3    27  DG27       -0.3327
    543  C3'       10.5830  -16.6650  -49.0540 C.3    27  DG27        0.1558
    544  O3'        9.3420  -15.9740  -49.1620 O.3    27  DG27       -0.3138
    545  C2'       10.2930  -18.1160  -48.6830 C.3    27  DG27        0.0865
    546  C1'       10.8850  -18.9660  -49.7970 C.3    27  DG27        0.2094
    547  N9        11.9040  -19.6250  -48.6950 N.ar   27  DG27       -0.2713
    548  C8        13.2710  -19.5270  -48.5990 C.ar   27  DG27        0.1816
    549  N7        13.7790  -20.3020  -47.6790 N.ar   27  DG27       -0.2173
    550  C5        12.6870  -20.9530  -47.1360 C.ar   27  DG27        0.1748
    551  C6        12.6080  -21.9160  -46.0980 C.ar   27  DG27        0.3023
    552  O6        13.5310  -22.4000  -45.4310 O.2    27  DG27       -0.2633
    553  N1        11.2970  -22.3170  -45.8580 N.ar   27  DG27       -0.1709
    554  C2        10.1970  -21.8480  -46.5350 C.ar   27  DG27        0.2606
    555  N2         9.0140  -22.3550  -46.1630 N.pl3  27  DG27       -0.0859
    556  N3        10.2540  -20.9530  -47.5020 N.ar   27  DG27       -0.1918
    557  C4        11.5170  -20.5480  -47.7510 C.ar   27  DG27        0.1722
    558  P          8.6820  -15.1140  -47.8260 P.3    28  DG28        0.2141
    559  OP1        7.6160  -14.0830  -47.9600 O.2    28  DG28       -0.5172
    560  OP2       10.0890  -14.6880  -47.5570 O.3    28  DG28       -0.4373
    561  O5'        8.2540  -16.1530  -46.6970 O.3    28  DG28       -0.3114
    562  C5'        6.9510  -16.7330  -46.7120 C.3    28  DG28        0.1811
    563  C4'        6.6890  -17.4580  -45.4140 C.3    28  DG28        0.1746
    564  O4'        7.4860  -18.6730  -45.3590 O.3    28  DG28       -0.3327
    565  C3'        7.0470  -16.6940  -44.1430 C.3    28  DG28        0.1558
    566  O3'        5.9760  -15.8170  -43.7750 O.3    28  DG28       -0.3138
    567  C2'        7.2630  -17.8220  -43.1330 C.3    28  DG28        0.0865
    568  C1'        7.8630  -18.9310  -44.0170 C.3    28  DG28        0.2094
    569  N9         9.2910  -19.0200  -44.0410 N.ar   28  DG28       -0.2713
    570  C8        10.1610  -18.3060  -44.8280 C.ar   28  DG28        0.1816
    571  N7        11.3900  -18.3290  -44.3900 N.ar   28  DG28       -0.2173
    572  C5        11.3320  -19.1050  -43.2470 C.ar   28  DG28        0.1748
    573  C6        12.3520  -19.4860  -42.3370 C.ar   28  DG28        0.3023
    574  O6        13.5550  -19.1990  -42.3710 O.2    28  DG28       -0.2633
    575  N1        11.8590  -20.2810  -41.3060 N.ar   28  DG28       -0.1709
    576  C2        10.5460  -20.6620  -41.1680 C.ar   28  DG28        0.2606
    577  N2        10.2620  -21.4310  -40.1090 N.pl3  28  DG28       -0.0859
    578  N3         9.5880  -20.3150  -42.0050 N.ar   28  DG28       -0.1918
    579  C4        10.0430  -19.5420  -43.0140 C.ar   28  DG28        0.1722
    580  P          6.2690  -14.2140  -43.1950 P.3    29  DA29        0.2141
    581  OP1        4.8990  -13.6480  -43.1500 O.3    29  DA29       -0.4373
    582  OP2        7.4500  -13.3210  -43.2390 O.2    29  DA29       -0.5172
    583  O5'        6.4380  -15.2210  -41.9610 O.3    29  DA29       -0.3114
    584  C5'        5.3090  -15.6840  -41.2410 C.3    29  DA29        0.1811
    585  C4'        5.6810  -16.9310  -40.4730 C.3    29  DA29        0.1746
    586  O4'        6.8480  -17.5570  -41.0540 O.3    29  DA29       -0.3327
    587  C3'        6.0940  -16.6480  -39.0460 C.3    29  DA29        0.1558
    588  O3'        4.9220  -16.5550  -38.2540 O.3    29  DA29       -0.3138
    589  C2'        6.9670  -17.8500  -38.6960 C.3    29  DA29        0.0865
    590  C1'        7.6290  -18.1540  -40.0340 C.3    29  DA29        0.2094
    591  N9         8.9560  -17.4440  -39.9420 N.ar   29  DA29       -0.2714
    592  C8         9.3840  -16.5610  -40.8990 C.ar   29  DA29        0.1815
    593  N7        10.6650  -16.2860  -40.8300 N.ar   29  DA29       -0.2193
    594  C5        11.1080  -17.0390  -39.7540 C.ar   29  DA29        0.1518
    595  C6        12.3750  -17.1890  -39.1620 C.ar   29  DA29        0.1919
    596  N6        13.4710  -16.5600  -39.5930 N.pl3  29  DA29       -0.1054
    597  N1        12.4770  -18.0170  -38.1010 N.ar   29  DA29       -0.2040
    598  C2        11.3780  -18.6470  -37.6700 C.ar   29  DA29        0.2016
    599  N3        10.1350  -18.5870  -38.1430 N.ar   29  DA29       -0.2048
    600  C4        10.0670  -17.7560  -39.1960 C.ar   29  DA29        0.1691
    601  P          4.9690  -15.6990  -37.0450 P.3    30  DT30        0.2141
    602  OP1        3.6510  -15.7210  -36.3680 O.3    30  DT30       -0.4373
    603  OP2        5.6370  -14.4010  -37.2990 O.2    30  DT30       -0.5172
    604  O5'        5.9640  -16.6430  -36.2300 O.3    30  DT30       -0.3114
    605  C5'        5.5600  -17.9430  -35.8030 C.3    30  DT30        0.1811
    606  C4'        6.7560  -18.7300  -35.3200 C.3    30  DT30        0.1746
    607  O4'        7.7440  -18.7690  -36.3790 O.3    30  DT30       -0.3327
    608  C3'        7.5010  -18.1460  -34.1290 C.3    30  DT30        0.1558
    609  O3'        6.9400  -18.5970  -32.9090 O.3    30  DT30       -0.3138
    610  C2'        8.8960  -18.7270  -34.2970 C.3    30  DT30        0.0866
    611  C1'        9.0450  -18.7080  -35.8190 C.3    30  DT30        0.2106
    612  N1         9.6900  -17.5000  -36.2750 N.ar   30  DT30       -0.2559
    613  C2        11.0530  -17.3700  -36.0920 C.ar   30  DT30        0.3545
    614  O2        11.7330  -18.2170  -35.5390 O.2    30  DT30       -0.2443
    615  N3        11.5970  -16.2070  -36.5810 N.ar   30  DT30       -0.1533
    616  C4        10.9290  -15.1830  -37.2200 C.ar   30  DT30        0.2804
    617  O4        11.5560  -14.1990  -37.6050 O.2    30  DT30       -0.2654
    618  C5         9.5170  -15.3920  -37.3710 C.ar   30  DT30        0.0534
    619  C6         8.9620  -16.5140  -36.9050 C.ar   30  DT30        0.0824
    620  C7         8.7020  -14.3340  -38.0540 C.3    30  DT30        0.0377
    621  P          7.4770  -17.6110  -31.5620 P.3    31  DA31        0.2141
    622  OP1        7.0650  -18.3380  -30.3370 O.3    31  DA31       -0.4373
    623  OP2        6.7480  -16.3760  -31.9220 O.2    31  DA31       -0.5172
    624  O5'        9.0670  -17.3260  -31.4730 O.3    31  DA31       -0.3114
    625  C5'       10.0040  -18.2830  -30.9230 C.3    31  DA31        0.1811
    626  C4'       11.4110  -18.1300  -31.4860 C.3    31  DA31        0.1746
    627  O4'       11.3540  -17.9030  -32.9180 O.3    31  DA31       -0.3327
    628  C3'       12.2200  -16.9360  -30.9870 C.3    31  DA31        0.1558
    629  O3'       12.7780  -17.1660  -29.6840 O.3    31  DA31       -0.3138
    630  C2'       13.2730  -16.8170  -32.0960 C.3    31  DA31        0.0865
    631  C1'       12.3740  -16.9920  -33.3100 C.3    31  DA31        0.2094
    632  N9        11.7980  -15.7580  -33.7140 N.ar   31  DA31       -0.2714
    633  C8        10.4780  -15.3990  -33.6340 C.ar   31  DA31        0.1815
    634  N7        10.2050  -14.2540  -34.2150 N.ar   31  DA31       -0.2193
    635  C5        11.4290  -13.8320  -34.7080 C.ar   31  DA31        0.1518
    636  C6        11.8150  -12.6870  -35.4270 C.ar   31  DA31        0.1919
    637  N6        10.9680  -11.7210  -35.7890 N.pl3  31  DA31       -0.1054
    638  N1        13.1170  -12.5700  -35.7660 N.ar   31  DA31       -0.2040
    639  C2        13.9650  -13.5390  -35.4030 C.ar   31  DA31        0.2016
    640  N3        13.7210  -14.6600  -34.7280 N.ar   31  DA31       -0.2048
    641  C4        12.4200  -14.7470  -34.4060 C.ar   31  DA31        0.1691
    642  P         13.0050  -16.3260  -29.1200 P.3    32  DT32        0.2141
    643  OP1       13.5250  -17.2670  -28.0810 O.3    32  DT32       -0.4373
    644  OP2       12.0850  -15.2300  -28.7280 O.2    32  DT32       -0.5172
    645  O5'       14.2210  -15.6070  -29.8690 O.3    32  DT32       -0.3114
    646  C5'       15.5530  -15.7970  -29.4080 C.3    32  DT32        0.1811
    647  C4'       16.5510  -15.1870  -30.3640 C.3    32  DT32        0.1746
    648  O4'       15.9520  -15.0600  -31.6810 O.3    32  DT32       -0.3327
    649  C3'       16.9930  -13.7800  -30.0170 C.3    32  DT32        0.1558
    650  O3'       18.0250  -13.7730  -29.0470 O.3    32  DT32       -0.3138
    651  C2'       17.4140  -13.2140  -31.3620 C.3    32  DT32        0.0866
    652  C1'       16.3750  -13.8500  -32.2890 C.3    32  DT32        0.2106
    653  N1        15.1110  -12.8880  -32.4130 N.ar   32  DT32       -0.2559
    654  C2        15.1800  -11.7680  -33.2200 C.ar   32  DT32        0.3545
    655  O2        16.2300  -11.3250  -33.6520 O.2    32  DT32       -0.2443
    656  N3        13.9710  -11.1800  -33.5030 N.ar   32  DT32       -0.1533
    657  C4        12.7280  -11.5910  -33.0700 C.ar   32  DT32        0.2804
    658  O4        11.7300  -10.9590  -33.4090 O.2    32  DT32       -0.2654
    659  C5        12.7390  -12.7600  -32.2360 C.ar   32  DT32        0.0534
    660  C6        13.9010  -13.3510  -31.9450 C.ar   32  DT32        0.0824
    661  C7        11.4350  -13.2850  -31.7130 C.3    32  DT32        0.0377
    662  P         17.9050  -12.8140  -27.8640 P.3    33  DT33        0.2141
    663  OP1       18.9090  -12.9200  -26.7840 O.3    33  DT33       -0.4373
    664  OP2       16.4760  -12.9640  -27.5210 O.2    33  DT33       -0.5172
    665  O5'       18.1020  -11.4150  -28.6250 O.3    33  DT33       -0.3114
    666  C5'       19.4130  -10.9850  -29.0200 C.3    33  DT33        0.1811
    667  C4'       19.3790   -9.6290  -29.7010 C.3    33  DT33        0.1746
    668  O4'       18.6490   -9.7140  -30.9440 O.3    33  DT33       -0.3327
    669  C3'       18.6510   -8.5560  -28.9140 C.3    33  DT33        0.1558
    670  O3'       19.5400   -7.9110  -28.0310 O.3    33  DT33       -0.3138
    671  C2'       18.1600   -7.5980  -29.9900 C.3    33  DT33        0.0866
    672  C1'       17.8490   -8.5550  -31.1390 C.3    33  DT33        0.2106
    673  N1        16.4030   -8.9180  -31.1770 N.ar   33  DT33       -0.2559
    674  C2        15.5930   -8.0730  -31.9120 C.ar   33  DT33        0.3545
    675  O2        16.0240   -7.1280  -32.5490 O.2    33  DT33       -0.2443
    676  N3        14.2530   -8.3730  -31.8730 N.ar   33  DT33       -0.1533
    677  C4        13.6550   -9.4110  -31.1890 C.ar   33  DT33        0.2804
    678  O4        12.4360   -9.5540  -31.2520 O.2    33  DT33       -0.2654
    679  C5        14.5620  -10.2430  -30.4490 C.ar   33  DT33        0.0534
    680  C6        15.8700   -9.9730  -30.4690 C.ar   33  DT33        0.0824
    681  C7        14.0080  -11.3990  -29.6700 C.3    33  DT33        0.0377
    682  P         18.9220   -7.1390  -26.8550 P.3    34  DA34        0.2141
    683  OP1       19.9670   -6.7090  -25.9160 O.3    34  DA34       -0.4373
    684  OP2       17.8720   -8.0490  -26.3220 O.2    34  DA34       -0.5172
    685  O5'       18.2780   -5.8080  -27.4800 O.3    34  DA34       -0.3114
    686  C5'       19.0890   -4.6560  -27.7880 C.3    34  DA34        0.1812
    687  C4'       18.2500   -3.5500  -28.4130 C.3    34  DA34        0.1775
    688  O4'       17.5580   -4.0460  -29.5790 O.3    34  DA34       -0.3326
    689  C3'       17.1030   -3.0440  -27.5620 C.3    34  DA34        0.1859
    690  O3'       17.5680   -2.0850  -26.7060 O.3    34  DA34       -0.2202
    691  C2'       16.1980   -2.3710  -28.5840 C.3    34  DA34        0.0894
    692  C1'       16.2820   -3.4200  -29.6740 C.3    34  DA34        0.2095
    693  N9        15.1940   -4.3190  -29.6630 N.ar   34  DA34       -0.2714
    694  C8        15.1850   -5.5270  -29.0170 C.ar   34  DA34        0.1815
    695  N7        14.0480   -6.1740  -29.1210 N.ar   34  DA34       -0.2193
    696  C5        13.2560   -5.3330  -29.8860 C.ar   34  DA34        0.1518
    697  C6        11.9340   -5.4420  -30.3520 C.ar   34  DA34        0.1919
    698  N6        11.1480   -6.4920  -30.1040 N.pl3  34  DA34       -0.1054
    699  N1        11.4440   -4.4250  -31.0920 N.ar   34  DA34       -0.2040
    700  C2        12.2340   -3.3740  -31.3410 C.ar   34  DA34        0.2016
    701  N3        13.4900   -3.1570  -30.9590 N.ar   34  DA34       -0.2048
    702  C4        13.9480   -4.1860  -30.2260 C.ar   34  DA34        0.1691
    703  P         16.9890   -2.0330  -25.3330 P.3    35  DT35        0.4149
    704  OP1       17.1300   -0.8450  -24.4560 O.2    35  DT35       -0.2668
    705  OP2       16.2260   -3.2100  -24.8410 O.3    35  DT35       -0.1481
    706  O5'       16.2310   -1.5430  -26.6370 O.3    35  DT35       -0.2177
    707  C5'       16.3230   -0.1950  -27.0710 C.3    35  DT35        0.2140
    708  C4'       14.9670    0.2950  -27.5250 C.3    35  DT35        0.1776
    709  O4'       14.3690   -0.6910  -28.4130 O.3    35  DT35       -0.3326
    710  C3'       13.9250    0.5280  -26.4370 C.3    35  DT35        0.1559
    711  O3'       14.0480    1.8470  -25.8960 O.3    35  DT35       -0.3138
    712  C2'       12.6130    0.3670  -27.1970 C.3    35  DT35        0.0866
    713  C1'       12.9690   -0.7070  -28.2300 C.3    35  DT35        0.2106
    714  N1        12.5710   -2.0410  -27.9110 N.ar   35  DT35       -0.2559
    715  C2        11.2790   -2.4140  -28.2270 C.ar   35  DT35        0.3545
    716  O2        10.5280   -1.7150  -28.8860 O.2    35  DT35       -0.2443
    717  N3        10.8920   -3.6390  -27.7420 N.ar   35  DT35       -0.1533
    718  C4        11.6520   -4.5100  -26.9890 C.ar   35  DT35        0.2804
    719  O4        11.1660   -5.5790  -26.6260 O.2    35  DT35       -0.2654
    720  C5        12.9820   -4.0510  -26.7020 C.ar   35  DT35        0.0534
    721  C6        13.3830   -2.8630  -27.1610 C.ar   35  DT35        0.0824
    722  C7        13.8870   -4.9280  -25.8880 C.3    35  DT35        0.0377
    723  P         13.5230    2.1350  -24.3680 P.3    36  DT36        0.2141
    724  OP1       13.8810    3.4410  -23.7730 O.2    36  DT36       -0.5172
    725  OP2       13.9410    0.8840  -23.6930 O.3    36  DT36       -0.4373
    726  O5'       11.9370    2.0670  -24.5650 O.3    36  DT36       -0.3114
    727  C5'       11.2270    3.1960  -25.0790 C.3    36  DT36        0.1811
    728  C4'        9.8070    2.8360  -25.4920 C.3    36  DT36        0.1746
    729  O4'        9.7860    1.6650  -26.3490 O.3    36  DT36       -0.3327
    730  C3'        8.7630    2.4470  -24.4570 C.3    36  DT36        0.1558
    731  O3'        8.2900    3.5570  -23.7030 O.3    36  DT36       -0.3138
    732  C2'        7.6500    1.9670  -25.3840 C.3    36  DT36        0.0866
    733  C1'        8.4490    1.1990  -26.4380 C.3    36  DT36        0.2106
    734  N1         8.3790   -0.2180  -26.0100 N.ar   36  DT36       -0.2559
    735  C2         7.3040   -1.0340  -26.3090 C.ar   36  DT36        0.3545
    736  O2         6.2410   -0.6070  -26.7250 O.2    36  DT36       -0.2443
    737  N3         7.5160   -2.3750  -26.1000 N.ar   36  DT36       -0.1533
    738  C4         8.6700   -2.9700  -25.6340 C.ar   36  DT36        0.2804
    739  O4         8.7100   -4.1900  -25.4990 O.2    36  DT36       -0.2654
    740  C5         9.7400   -2.0570  -25.3460 C.ar   36  DT36        0.0534
    741  C6         9.5610   -0.7470  -25.5390 C.ar   36  DT36        0.0824
    742  C7        11.0380   -2.6070  -24.8330 C.3    36  DT36        0.0377
    743  P          7.8790    3.3770  -22.2810 P.3    37  DT37        0.2141
    744  OP1        8.0220    4.6150  -21.4800 O.3    37  DT37       -0.4373
    745  OP2        8.9130    2.3180  -22.2080 O.2    37  DT37       -0.5172
    746  O5'        6.5150    2.6300  -21.8910 O.3    37  DT37       -0.3114
    747  C5'        5.2620    3.2470  -22.1550 C.3    37  DT37        0.1811
    748  C4'        4.2120    2.2520  -22.5900 C.3    37  DT37        0.1746
    749  O4'        4.7730    1.3060  -23.5370 O.3    37  DT37       -0.3327
    750  C3'        3.6180    1.3740  -21.5000 C.3    37  DT37        0.1558
    751  O3'        2.6010    2.0460  -20.7780 O.3    37  DT37       -0.3138
    752  C2'        3.1080    0.1670  -22.2790 C.3    37  DT37        0.0866
    753  C1'        4.1360    0.0530  -23.4070 C.3    37  DT37        0.2106
    754  N1         5.1120   -0.9290  -23.1770 N.ar   37  DT37       -0.2559
    755  C2         4.8550   -2.2360  -23.5440 C.ar   37  DT37        0.3545
    756  O2         3.8030   -2.5910  -24.0440 O.2    37  DT37       -0.2443
    757  N3         5.8800   -3.1190  -23.3030 N.ar   37  DT37       -0.1533
    758  C4         7.1080   -2.8330  -22.7440 C.ar   37  DT37        0.2804
    759  O4         7.9280   -3.7350  -22.5920 O.2    37  DT37       -0.2654
    760  C5         7.2980   -1.4550  -22.3890 C.ar   37  DT37        0.0534
    761  C6         6.3180   -0.5750  -22.6120 C.ar   37  DT37        0.0824
    762  C7         8.6020   -1.0430  -21.7730 C.3    37  DT37        0.0377
    763  P          1.8790    1.2980  -19.5050 P.3    38  DT38        0.2141
    764  OP1        0.6440    2.0440  -19.1420 O.2    38  DT38       -0.5172
    765  OP2        2.9930    1.1920  -18.5240 O.3    38  DT38       -0.4373
    766  O5'        1.4880   -0.1760  -19.9640 O.3    38  DT38       -0.3114
    767  C5'        0.4130   -0.3820  -20.8690 C.3    38  DT38        0.1811
    768  C4'        0.2140   -1.8530  -21.1310 C.3    38  DT38        0.1746
    769  O4'        1.3590   -2.3650  -21.8690 O.3    38  DT38       -0.3327
    770  C3'        0.1740   -2.7250  -19.8860 C.3    38  DT38        0.1558
    771  O3'       -1.1020   -2.7430  -19.2590 O.3    38  DT38       -0.3138
    772  C2'        0.5630   -4.0910  -20.4360 C.3    38  DT38        0.0866
    773  C1'        1.6140   -3.7060  -21.4790 C.3    38  DT38        0.2106
    774  N1         2.9460   -3.7890  -20.9250 N.ar   38  DT38       -0.2559
    775  C2         3.4780   -5.0530  -20.7550 C.ar   38  DT38        0.3545
    776  O2         2.8960   -6.0690  -21.0900 O.2    38  DT38       -0.2443
    777  N3         4.7240   -5.0860  -20.1750 N.ar   38  DT38       -0.1533
    778  C4         5.4730   -4.0060  -19.7570 C.ar   38  DT38        0.2804
    779  O4         6.5780   -4.1950  -19.2530 O.2    38  DT38       -0.2654
    780  C5         4.8520   -2.7290  -19.9660 C.ar   38  DT38        0.0534
    781  C6         3.6420   -2.6680  -20.5280 C.ar   38  DT38        0.0824
    782  C7         5.5880   -1.4920  -19.5430 C.3    38  DT38        0.0377
    783  P         -1.2430   -3.2760  -17.7180 P.3    39  DT39        0.2141
    784  OP1       -2.4950   -2.9830  -16.9860 O.3    39  DT39       -0.4373
    785  OP2        0.0570   -2.7690  -17.2290 O.2    39  DT39       -0.5172
    786  O5'       -1.0060   -4.8560  -17.8400 O.3    39  DT39       -0.3114
    787  C5'       -2.0780   -5.7300  -18.1610 C.3    39  DT39        0.1811
    788  C4'       -1.6630   -7.1700  -18.0020 C.3    39  DT39        0.1746
    789  O4'       -0.5160   -7.4270  -18.8480 O.3    39  DT39       -0.3327
    790  C3'       -1.1740   -7.5700  -16.6200 C.3    39  DT39        0.1558
    791  O3'       -2.2140   -7.8300  -15.6940 O.3    39  DT39       -0.3138
    792  C2'       -0.2930   -8.7790  -16.9120 C.3    39  DT39        0.0866
    793  C1'        0.3430   -8.3620  -18.2330 C.3    39  DT39        0.2106
    794  N1         1.6290   -7.6980  -18.0080 N.ar   39  DT39       -0.2559
    795  C2         2.7240   -8.5050  -17.7640 C.ar   39  DT39        0.3545
    796  O2         2.6640   -9.7220  -17.7560 O.2    39  DT39       -0.2443
    797  N3         3.9000   -7.8340  -17.5280 N.ar   39  DT39       -0.1533
    798  C4         4.0860   -6.4670  -17.5110 C.ar   39  DT39        0.2804
    799  O4         5.2040   -6.0120  -17.2850 O.2    39  DT39       -0.2654
    800  C5         2.9020   -5.6980  -17.7720 C.ar   39  DT39        0.0534
    801  C6         1.7460   -6.3250  -18.0050 C.ar   39  DT39        0.0824
    802  C7         3.0020   -4.2010  -17.7750 C.3    39  DT39        0.0377
    803  P         -1.9500   -7.4840  -14.1350 P.3    40  DG40        0.2141
    804  OP1       -3.3320   -7.9780  -13.8750 O.2    40  DG40       -0.5172
    805  OP2       -1.3470   -6.4480  -13.2490 O.3    40  DG40       -0.4373
    806  O5'       -0.9520   -8.7240  -14.1950 O.3    40  DG40       -0.3114
    807  C5'       -1.3460   -9.9520  -14.7920 C.3    40  DG40        0.1811
    808  C4'       -0.2200  -10.9460  -14.6930 C.3    40  DG40        0.1746
    809  O4'        0.9070  -10.5070  -15.4870 O.3    40  DG40       -0.3327
    810  C3'        0.3810  -11.0610  -13.3140 C.3    40  DG40        0.1558
    811  O3'       -0.4220  -11.8910  -12.5100 O.3    40  DG40       -0.3138
    812  C2'        1.7290  -11.6880  -13.6130 C.3    40  DG40        0.0865
    813  C1'        2.1080  -10.9490  -14.8880 C.3    40  DG40        0.2094
    814  N9         2.9620   -9.6980  -14.6190 N.ar   40  DG40       -0.2713
    815  C8         2.5780   -8.3800  -14.6500 C.ar   40  DG40        0.1816
    816  N7         3.5690   -7.5500  -14.4650 N.ar   40  DG40       -0.2173
    817  C5         4.6740   -8.3650  -14.3040 C.ar   40  DG40        0.1748
    818  C6         6.0350   -8.0410  -14.0690 C.ar   40  DG40        0.3023
    819  O6         6.5460   -6.9190  -13.9550 O.2    40  DG40       -0.2633
    820  N1         6.8310   -9.1780  -13.9670 N.ar   40  DG40       -0.1709
    821  C2         6.3730  -10.4690  -14.0760 C.ar   40  DG40        0.2606
    822  N2         7.2930  -11.4350  -13.9500 N.pl3  40  DG40       -0.0859
    823  N3         5.1120  -10.7860  -14.2930 N.ar   40  DG40       -0.1918
    824  C4         4.3200   -9.6980  -14.3960 C.ar   40  DG40        0.1722
    825  P         -0.5070  -11.5890  -11.0080 P.3    41  DA41        0.2141
    826  OP1       -1.7990  -12.2240  -10.6490 O.3    41  DA41       -0.4373
    827  OP2       -0.3660  -10.1120  -10.9470 O.2    41  DA41       -0.5172
    828  O5'        0.6460  -12.2520  -10.1400 O.3    41  DA41       -0.3114
    829  C5'        0.9020  -13.6360  -10.2770 C.3    41  DA41        0.1811
    830  C4'        2.3780  -13.9260  -10.2030 C.3    41  DA41        0.1746
    831  O4'        3.1100  -13.2660  -11.2730 O.3    41  DA41       -0.3327
    832  C3'        3.1360  -13.4630   -8.9830 C.3    41  DA41        0.1558
    833  O3'        2.8300  -14.2060   -7.8350 O.3    41  DA41       -0.3138
    834  C2'        4.5690  -13.6180   -9.4460 C.3    41  DA41        0.0865
    835  C1'        4.4660  -13.0950  -10.8730 C.3    41  DA41        0.2094
    836  N9         4.7600  -11.6360  -10.8700 N.ar   41  DA41       -0.2714
    837  C8         3.9090  -10.6130  -11.1970 C.ar   41  DA41        0.1815
    838  N7         4.4690   -9.4270  -11.1610 N.ar   41  DA41       -0.2193
    839  C5         5.7770   -9.6890  -10.7850 C.ar   41  DA41        0.1518
    840  C6         6.8850   -8.8520  -10.5690 C.ar   41  DA41        0.1919
    841  N6         6.8480   -7.5250  -10.7090 N.pl3  41  DA41       -0.1054
    842  N1         8.0470   -9.4330  -10.1990 N.ar   41  DA41       -0.2040
    843  C2         8.0840  -10.7630  -10.0600 C.ar   41  DA41        0.2016
    844  N3         7.1110  -11.6540  -10.2350 N.ar   41  DA41       -0.2048
    845  C4         5.9700  -11.0450  -10.6010 C.ar   41  DA41        0.1691
    846  P          2.3490  -13.4410   -6.6300 P.3    42  DT42        0.2141
    847  OP1        1.2220  -14.3960   -6.4750 O.2    42  DT42       -0.5172
    848  OP2        2.1720  -12.0130   -6.2400 O.3    42  DT42       -0.4373
    849  O5'        3.5860  -14.0570   -5.8470 O.3    42  DT42       -0.3114
    850  C5'        4.4320  -15.0110   -6.4680 C.3    42  DT42        0.1811
    851  C4'        5.8550  -14.5210   -6.4300 C.3    42  DT42        0.1746
    852  O4'        6.0210  -13.3420   -7.2630 O.3    42  DT42       -0.3327
    853  C3'        6.3210  -13.9550   -5.1020 C.3    42  DT42        0.1558
    854  O3'        6.4630  -14.9190   -4.0720 O.3    42  DT42       -0.3138
    855  C2'        7.6150  -13.2540   -5.5070 C.3    42  DT42        0.0866
    856  C1'        7.2390  -12.7100   -6.8910 C.3    42  DT42        0.2106
    857  N1         6.9250  -11.4120   -6.8420 N.ar   42  DT42       -0.2559
    858  C2         7.8160  -10.3570   -6.8920 C.ar   42  DT42        0.3545
    859  O2         9.0150  -10.5060   -7.0550 O.2    42  DT42       -0.2443
    860  N3         7.2530   -9.1130   -6.7420 N.ar   42  DT42       -0.1533
    861  C4         5.9180   -8.8240   -6.5520 C.ar   42  DT42        0.2804
    862  O4         5.5620   -7.6540   -6.4350 O.2    42  DT42       -0.2654
    863  C5         5.0560   -9.9720   -6.5110 C.ar   42  DT42        0.0534
    864  C6         5.5780  -11.1940   -6.6540 C.ar   42  DT42        0.0824
    865  C7         3.5850   -9.7620   -6.3080 C.3    42  DT42        0.0377
    866  P          6.4550  -14.3700   -2.4340 P.3    43  DA43        0.2141
    867  OP1        6.1860  -15.3340   -1.3400 O.3    43  DA43       -0.4373
    868  OP2        5.4660  -13.2910   -2.7360 O.2    43  DA43       -0.5172
    869  O5'        7.8760  -13.7030   -2.1450 O.3    43  DA43       -0.3114
    870  C5'        9.0140  -14.4940   -1.8120 C.3    43  DA43        0.1811
    871  C4'       10.2200  -13.6030   -1.6550 C.3    43  DA43        0.1744
    872  O4'       10.4300  -12.8790   -2.8950 O.3    43  DA43       -0.3349
    873  C3'       10.0350  -12.4880   -0.6500 C.3    43  DA43        0.1555
    874  O3'       10.2650  -12.9040    0.6680 O.3    43  DA43       -0.3139
    875  C2'       11.0470  -11.4530   -1.1100 C.3    43  DA43        0.0835
    876  C1'       10.8830  -11.5590   -2.6170 C.3    43  DA43        0.1971
    877  N9         9.8660  -10.6450   -3.0110 N.pl3  43  DA43       -0.2510
    878  C8         8.5190  -10.8830   -3.1050 C.2    43  DA43        0.1665
    879  N7         7.8140   -9.8190   -3.4080 N.2    43  DA43       -0.2214
    880  C5         8.7610   -8.8140   -3.5190 C.2    43  DA43        0.1815
    881  C6         8.6560   -7.4450   -3.8230 C.2    43  DA43        0.4027
    882  N6         7.4990   -6.8310   -4.0800 N.pl3  43  DA43        0.2133
    883  N1         9.7950   -6.7210   -3.8530 N.pl3  43  DA43       -0.0786
    884  C2        10.9550   -7.3370   -3.5960 C.3    43  DA43        0.3187
    885  N3        11.1800   -8.6150   -3.3000 N.3    43  DA43       -0.1341
    886  C4        10.0290   -9.3070   -3.2770 C.3    43  DA43        0.2042
    887  P          9.6370  -12.0940    1.8320 P.3    44  DC44        0.2141
    888  OP1        9.8610  -12.8200    3.1070 O.3    44  DC44       -0.4373
    889  OP2        8.3940  -11.3090    1.6450 O.2    44  DC44       -0.5172
    890  O5'       10.8730  -11.1170    1.6070 O.3    44  DC44       -0.3114
    891  C5'       12.1870  -11.6490    1.3730 C.3    44  DC44        0.1811
    892  C4'       13.0540  -10.6300    0.6730 C.3    44  DC44        0.1746
    893  O4'       12.3750  -10.1440   -0.5180 O.3    44  DC44       -0.3327
    894  C3'       13.3590   -9.3470    1.4260 C.3    44  DC44        0.1558
    895  O3'       14.3860   -9.5470    2.3950 O.3    44  DC44       -0.3138
    896  C2'       13.8060   -8.4320    0.2920 C.3    44  DC44        0.0866
    897  C1'       12.8340   -8.8330   -0.8160 C.3    44  DC44        0.2106
    898  N1        11.6820   -7.9830   -0.8960 N.ar   44  DC44       -0.2556
    899  C2        11.7820   -6.7290   -1.5100 C.ar   44  DC44        0.3531
    900  O2        12.8830   -6.3700   -1.9600 O.2    44  DC44       -0.2443
    901  N3        10.6800   -5.9460   -1.5940 N.ar   44  DC44       -0.1739
    902  C4         9.5190   -6.3730   -1.0960 C.ar   44  DC44        0.1759
    903  N4         8.4600   -5.5670   -1.2020 N.pl3  44  DC44       -0.1070
    904  C5         9.3970   -7.6400   -0.4700 C.ar   44  DC44        0.0566
    905  C6        10.4870   -8.4100   -0.3890 C.ar   44  DC44        0.0849
    906  P         14.7480   -8.3360    3.5330 P.3    45  DC45        0.2141
    907  OP1       15.8550   -8.7080    4.4240 O.3    45  DC45       -0.4373
    908  OP2       13.3960   -8.2320    4.1470 O.2    45  DC45       -0.5172
    909  O5'       15.1680   -6.9640    2.8120 O.3    45  DC45       -0.3114
    910  C5'       16.5290   -6.7160    2.4070 C.3    45  DC45        0.1811
    911  C4'       16.6530   -5.3700    1.7060 C.3    45  DC45        0.1746
    912  O4'       15.7400   -5.3020    0.5900 O.3    45  DC45       -0.3327
    913  C3'       16.2310   -4.1680    2.5270 C.3    45  DC45        0.1558
    914  O3'       17.2830   -3.7620    3.3000 O.3    45  DC45       -0.3138
    915  C2'       15.9830   -3.1070    1.4660 C.3    45  DC45        0.0866
    916  C1'       15.2500   -3.9710    0.4610 C.3    45  DC45        0.2106
    917  N1        13.7320   -3.9710    0.5760 N.ar   45  DC45       -0.2556
    918  C2        13.0420   -2.8590    0.0790 C.ar   45  DC45        0.3531
    919  O2        13.6930   -1.9250   -0.4190 O.2    45  DC45       -0.2443
    920  N3        11.6900   -2.8340    0.1560 N.ar   45  DC45       -0.1739
    921  C4        11.0340   -3.8590    0.7000 C.ar   45  DC45        0.1759
    922  N4         9.7010   -3.7900    0.7540 N.pl3  45  DC45       -0.1070
    923  C5        11.7140   -4.9950    1.2090 C.ar   45  DC45        0.0566
    924  C6        13.0490   -5.0160    1.1310 C.ar   45  DC45        0.0849
    925  P         17.0060   -3.0360    4.6330 P.3    46  DC46        0.2141
    926  OP1       18.2210   -3.1440    5.4720 O.3    46  DC46       -0.4373
    927  OP2       15.7880   -3.8090    4.9630 O.2    46  DC46       -0.5172
    928  O5'       16.5100   -1.5110    4.5850 O.3    46  DC46       -0.3114
    929  C5'       17.4670   -0.4590    4.5600 C.3    46  DC46        0.1811
    930  C4'       16.9320    0.8120    3.9430 C.3    46  DC46        0.1746
    931  O4'       15.9820    0.4870    2.8950 O.3    46  DC46       -0.3327
    932  C3'       16.1540    1.7500    4.8560 C.3    46  DC46        0.1558
    933  O3'       16.9850    2.5560    5.6730 O.3    46  DC46       -0.3138
    934  C2'       15.3230    2.5530    3.8620 C.3    46  DC46        0.0866
    935  C1'       14.9960    1.4950    2.8090 C.3    46  DC46        0.2106
    936  N1        13.6400    0.9250    2.9790 N.ar   46  DC46       -0.2556
    937  C2        12.4810    1.6440    2.6640 C.ar   46  DC46        0.3531
    938  O2        12.5810    2.8550    2.4030 O.2    46  DC46       -0.2443
    939  N3        11.2890    1.0010    2.6540 N.ar   46  DC46       -0.1739
    940  C4        11.2290   -0.2990    2.9410 C.ar   46  DC46        0.1759
    941  N4        10.0320   -0.8900    2.9180 N.pl3  46  DC46       -0.1070
    942  C5        12.3920   -1.0460    3.2630 C.ar   46  DC46        0.0566
    943  C6        13.5670   -0.4070    3.2720 C.ar   46  DC46        0.0849
    944  P         16.6180    2.9010    7.2330 P.3    47  DC47        0.2141
    945  OP1       17.8010    3.5960    7.8180 O.2    47  DC47       -0.5172
    946  OP2       16.0240    1.7330    7.9410 O.3    47  DC47       -0.4373
    947  O5'       15.4790    3.9960    7.0060 O.3    47  DC47       -0.3114
    948  C5'       15.8270    5.3700    6.9050 C.3    47  DC47        0.1811
    949  C4'       14.7590    6.1460    6.1680 C.3    47  DC47        0.1746
    950  O4'       14.1950    5.3200    5.1080 O.3    47  DC47       -0.3327
    951  C3'       13.5200    6.5740    6.9410 C.3    47  DC47        0.1558
    952  O3'       13.7650    7.7160    7.7740 O.3    47  DC47       -0.3138
    953  C2'       12.5720    6.9060    5.7950 C.3    47  DC47        0.0866
    954  C1'       12.8910    5.7860    4.8030 C.3    47  DC47        0.2106
    955  N1        11.9380    4.7250    4.9640 N.ar   47  DC47       -0.2556
    956  C2        10.6160    4.8550    4.5220 C.ar   47  DC47        0.3531
    957  O2        10.2320    5.9600    4.1020 O.2    47  DC47       -0.2443
    958  N3         9.7970    3.7770    4.5660 N.ar   47  DC47       -0.1739
    959  C4        10.2520    2.6110    5.0260 C.ar   47  DC47        0.1759
    960  N4         9.4090    1.5770    5.0510 N.pl3  47  DC47       -0.1070
    961  C5        11.5880    2.4590    5.4780 C.ar   47  DC47        0.0566
    962  C6        12.3940    3.5260    5.4330 C.ar   47  DC47        0.0849
    963  P         12.8620    7.9670    9.0320 P.3    48  DT48        0.2141
    964  OP1       12.7440    8.7850   10.2590 O.3    48  DT48       -0.4373
    965  OP2       12.6950    6.5000    9.1150 O.2    48  DT48       -0.5172
    966  O5'       11.8100    8.5290    7.9680 O.3    48  DT48       -0.3114
    967  C5'       11.5610    9.9220    7.8660 C.3    48  DT48        0.1811
    968  C4'       10.6500   10.2110    6.6930 C.3    48  DT48        0.1746
    969  O4'       10.5130    9.0460    5.8430 O.3    48  DT48       -0.3327
    970  C3'        9.2300   10.5070    7.1170 C.3    48  DT48        0.1558
    971  O3'        9.0940   11.8630    7.4660 O.3    48  DT48       -0.3138
    972  C2'        8.4160   10.1340    5.8880 C.3    48  DT48        0.0866
    973  C1'        9.1590    8.8750    5.4500 C.3    48  DT48        0.2106
    974  N1         8.6380    7.5600    6.0880 N.ar   48  DT48       -0.2559
    975  C2         7.3880    7.0920    5.7270 C.ar   48  DT48        0.3545
    976  O2         6.6470    7.6940    4.9700 O.2    48  DT48       -0.2443
    977  N3         7.0340    5.8890    6.2880 N.ar   48  DT48       -0.1533
    978  C4         7.7860    5.1230    7.1540 C.ar   48  DT48        0.2804
    979  O4         7.3320    4.0620    7.5740 O.2    48  DT48       -0.2654
    980  C5         9.0710    5.6760    7.4810 C.ar   48  DT48        0.0534
    981  C6         9.4400    6.8450    6.9500 C.ar   48  DT48        0.0824
    982  C7         9.9650    4.9170    8.4170 C.3    48  DT48        0.0377
    983  P          8.3730   12.1270    8.9120 P.3    49  DT49        0.2141
    984  OP1        9.0760   13.3910    9.2410 O.2    49  DT49       -0.5172
    985  OP2        8.3890   11.0060    9.8810 O.3    49  DT49       -0.4373
    986  O5'        6.8540   12.4840    8.5990 O.3    49  DT49       -0.3114
    987  C5'        6.5140   13.2750    7.4480 C.3    49  DT49        0.1811
    988  C4'        5.0770   13.0410    7.0500 C.3    49  DT49        0.1746
    989  O4'        4.8360   11.6150    6.8990 O.3    49  DT49       -0.3327
    990  C3'        4.0080   13.4530    8.0470 C.3    49  DT49        0.1558
    991  O3'        3.7820   14.8610    8.0110 O.3    49  DT49       -0.3138
    992  C2'        2.8060   12.6640    7.5400 C.3    49  DT49        0.0866
    993  C1'        3.4620   11.3440    7.1390 C.3    49  DT49        0.2106
    994  N1         3.1340   10.3910    8.0280 N.ar   49  DT49       -0.2559
    995  C2         1.9180    9.7360    8.0390 C.ar   49  DT49        0.3545
    996  O2         1.0150    9.9970    7.2630 O.2    49  DT49       -0.2443
    997  N3         1.7920    8.7590    8.9970 N.ar   49  DT49       -0.1533
    998  C4         2.7410    8.3800    9.9240 C.ar   49  DT49        0.2804
    999  O4         2.4820    7.4820   10.7220 O.2    49  DT49       -0.2654
   1000  C5         3.9760    9.1070    9.8490 C.ar   49  DT49        0.0534
   1001  C6         4.1250   10.0620    8.9270 C.ar   49  DT49        0.0824
   1002  C7         5.0710    8.7680   10.8160 C.3    49  DT49        0.0377
   1003  P          2.9230   15.5690    9.2090 P.3    50  DT50        0.2141
   1004  OP1        2.8300   17.0030    8.8610 O.2    50  DT50       -0.5172
   1005  OP2        3.3770   15.1160   10.5430 O.3    50  DT50       -0.4373
   1006  O5'        1.4820   14.9110    9.0670 O.3    50  DT50       -0.3114
   1007  C5'        0.7450   15.1850    7.8920 C.3    50  DT50        0.1811
   1008  C4'       -0.5700   14.4640    7.9460 C.3    50  DT50        0.1746
   1009  O4'       -0.3200   13.0420    7.8380 O.3    50  DT50       -0.3327
   1010  C3'       -1.3660   14.5990    9.2370 C.3    50  DT50        0.1558
   1011  O3'       -2.1070   15.8050    9.3070 O.3    50  DT50       -0.3138
   1012  C2'       -2.2500   13.3670    9.1660 C.3    50  DT50        0.0866
   1013  C1'       -1.2820   12.3380    8.5880 C.3    50  DT50        0.2106
   1014  N1        -0.5780   11.5600    9.6390 N.ar   50  DT50       -0.2559
   1015  C2        -1.1910   10.4150   10.1130 C.ar   50  DT50        0.3545
   1016  O2        -2.2660   10.0170    9.6990 O.2    50  DT50       -0.2443
   1017  N3        -0.4990    9.7490   11.0960 N.ar   50  DT50       -0.1533
   1018  C4         0.7170   10.1050   11.6400 C.ar   50  DT50        0.2804
   1019  O4         1.2160    9.4050   12.5170 O.2    50  DT50       -0.2654
   1020  C5         1.2890   11.3050   11.0960 C.ar   50  DT50        0.0534
   1021  C6         0.6370   11.9720   10.1400 C.ar   50  DT50        0.0824
   1022  C7         2.6120   11.7760   11.6230 C.3    50  DT50        0.0377
   1023  P         -2.6720   16.4650   10.7190 P.3    51  DG51        0.2141
   1024  OP1       -3.6410   17.5160   10.3340 O.2    51  DG51       -0.5172
   1025  OP2       -1.7650   16.6210   11.8840 O.3    51  DG51       -0.4373
   1026  O5'       -3.4900   15.1250   11.0310 O.3    51  DG51       -0.3114
   1027  C5'       -4.5480   14.7370   10.1700 C.3    51  DG51        0.1811
   1028  C4'       -5.2260   13.4770   10.6490 C.3    51  DG51        0.1746
   1029  O4'       -4.3200   12.3490   10.5700 O.3    51  DG51       -0.3327
   1030  C3'       -5.6690   13.4700   12.1010 C.3    51  DG51        0.1558
   1031  O3'       -6.8700   14.1840   12.3150 O.3    51  DG51       -0.3138
   1032  C2'       -5.7870   11.9830   12.3980 C.3    51  DG51        0.0865
   1033  C1'       -4.5960   11.4420   11.6200 C.3    51  DG51        0.2094
   1034  N9        -3.3760   11.2680   12.6570 N.ar   51  DG51       -0.2713
   1035  C8        -2.2120   11.9900   12.7640 C.ar   51  DG51        0.1816
   1036  N7        -1.3550   11.4660   13.5970 N.ar   51  DG51       -0.2173
   1037  C5        -1.9850   10.3300   14.0680 C.ar   51  DG51        0.1748
   1038  C6        -1.5510    9.3520   15.0000 C.ar   51  DG51        0.3023
   1039  O6        -0.4770    9.3020   15.6130 O.2    51  DG51       -0.2633
   1040  N1        -2.5060    8.3590   15.1960 N.ar   51  DG51       -0.1709
   1041  C2        -3.7300    8.3130   14.5720 C.ar   51  DG51        0.2606
   1042  N2        -4.5170    7.2760   14.8880 N.pl3  51  DG51       -0.0859
   1043  N3        -4.1480    9.2140   13.7040 N.ar   51  DG51       -0.1918
   1044  C4        -3.2360   10.1890   13.4990 C.ar   51  DG51        0.1722
   1045  P         -7.0150   15.0050   13.6330 P.3    52  DG52        0.2141
   1046  OP1       -7.0890   16.4710   13.4270 O.2    52  DG52       -0.5172
   1047  OP2       -5.9180   14.4320   14.4480 O.3    52  DG52       -0.4373
   1048  O5'       -8.3410   14.4370   14.3390 O.3    52  DG52       -0.3114
   1049  C5'       -9.4910   14.0530   13.5950 C.3    52  DG52        0.1811
   1050  C4'      -10.4340   13.1790   14.3950 C.3    52  DG52        0.1746
   1051  O4'       -9.8590   11.8610   14.5960 O.3    52  DG52       -0.3327
   1052  C3'      -10.7700   13.6390   15.8040 C.3    52  DG52        0.1558
   1053  O3'      -11.7680   14.6410   15.8390 O.3    52  DG52       -0.3138
   1054  C2'      -11.2300   12.3480   16.4620 C.3    52  DG52        0.0865
   1055  C1'      -10.2880   11.3280   15.8310 C.3    52  DG52        0.2094
   1056  N9        -9.2340   11.1400   16.7200 N.ar   52  DG52       -0.2713
   1057  C8        -7.9850   11.7050   16.6310 C.ar   52  DG52        0.1816
   1058  N7        -7.2300   11.4510   17.6640 N.ar   52  DG52       -0.2173
   1059  C5        -8.0220   10.6720   18.4860 C.ar   52  DG52        0.1748
   1060  C6        -7.7510   10.0920   19.7520 C.ar   52  DG52        0.3023
   1061  O6        -6.7100   10.1600   20.4170 O.2    52  DG52       -0.2633
   1062  N1        -8.8390    9.3740   20.2400 N.ar   52  DG52       -0.1709
   1063  C2       -10.0410    9.2320   19.5890 C.ar   52  DG52        0.2606
   1064  N2       -10.9710    8.5010   20.2180 N.pl3  52  DG52       -0.0859
   1065  N3       -10.3080    9.7650   18.4130 N.ar   52  DG52       -0.1918
   1066  C4        -9.2660   10.4670   17.9200 C.ar   52  DG52        0.1722
   1067  P        -11.8600   15.5760   17.0100 P.3    53  DG53        0.2141
   1068  OP1      -12.9120   16.2800   16.1350 O.2    53  DG53       -0.5172
   1069  OP2      -10.7720   16.4880   17.4100 O.3    53  DG53       -0.4373
   1070  O5'      -12.5260   14.8540   18.2530 O.3    53  DG53       -0.3114
   1071  C5'      -13.7110   14.0540   18.0530 C.3    53  DG53        0.1811
   1072  C4'      -13.9580   13.4700   19.4280 C.3    53  DG53        0.1746
   1073  O4'      -13.0490   12.3990   19.6110 O.3    53  DG53       -0.3327
   1074  C3'      -13.7010   14.3820   20.6040 C.3    53  DG53        0.1558
   1075  O3'      -14.8350   15.1940   20.9770 O.3    53  DG53       -0.3138
   1076  C2'      -13.4900   13.3520   21.7370 C.3    53  DG53        0.0865
   1077  C1'      -12.7200   12.2840   21.0080 C.3    53  DG53        0.2094
   1078  N9       -11.2890   12.5350   21.2540 N.ar   53  DG53       -0.2713
   1079  C8       -10.4170   13.3020   20.5190 C.ar   53  DG53        0.1816
   1080  N7        -9.2290   13.3840   21.0520 N.ar   53  DG53       -0.2173
   1081  C5        -9.3170   12.6260   22.2050 C.ar   53  DG53        0.1748
   1082  C6        -8.3460   12.3430   23.2000 C.ar   53  DG53        0.3023
   1083  O6        -7.1700   12.7240   23.2530 O.2    53  DG53       -0.2633
   1084  N1        -8.8550   11.5290   24.2080 N.ar   53  DG53       -0.1709
   1085  C2       -10.1420   11.0480   24.2530 C.ar   53  DG53        0.2606
   1086  N2       -10.4490   10.2770   25.3050 N.pl3  53  DG53       -0.0859
   1087  N3       -11.0550   11.3030   23.3370 N.ar   53  DG53       -0.1918
   1088  C4       -10.5830   12.0920   22.3480 C.ar   53  DG53        0.1722
   1089  P        -14.7280   16.4840   21.9270 P.3    54  DG54        0.2141
   1090  OP1      -16.0360   17.2310   22.0310 O.3    54  DG54       -0.4373
   1091  OP2      -13.6740   17.3100   21.2700 O.2    54  DG54       -0.5172
   1092  O5'      -14.3710   15.8260   23.3300 O.3    54  DG54       -0.3114
   1093  C5'      -15.5850   15.2630   23.9030 C.3    54  DG54        0.1811
   1094  C4'      -15.0890   14.5280   25.1200 C.3    54  DG54        0.1746
   1095  O4'      -13.9490   13.8040   24.8270 O.3    54  DG54       -0.3327
   1096  C3'      -14.6270   15.4330   26.2660 C.3    54  DG54        0.1558
   1097  O3'      -15.7540   16.0390   26.9060 O.3    54  DG54       -0.3138
   1098  C2'      -13.8310   14.4300   27.0900 C.3    54  DG54        0.0865
   1099  C1'      -13.1180   13.6540   26.0090 C.3    54  DG54        0.2094
   1100  N9       -11.8100   14.2670   25.6790 N.ar   54  DG54       -0.2713
   1101  C8       -11.5190   14.9810   24.5430 C.ar   54  DG54        0.1816
   1102  N7       -10.2660   15.3390   24.4660 N.ar   54  DG54       -0.2173
   1103  C5        -9.6930   14.8310   25.6160 C.ar   54  DG54        0.1748
   1104  C6        -8.3580   14.8990   26.0910 C.ar   54  DG54        0.3023
   1105  O6        -7.3830   15.4460   25.5590 O.2    54  DG54       -0.2633
   1106  N1        -8.2050   14.2480   27.3110 N.ar   54  DG54       -0.1709
   1107  C2        -9.2140   13.6090   27.9910 C.ar   54  DG54        0.2606
   1108  N2        -8.8720   13.0360   29.1530 N.pl3  54  DG54       -0.0859
   1109  N3       -10.4590   13.5370   27.5640 N.ar   54  DG54       -0.1918
   1110  C4       -10.6310   14.1640   26.3810 C.ar   54  DG54        0.1722
   1111  P        -15.4810   17.4780   27.7870 P.3    55  DA55        0.2141
   1112  OP1      -16.8440   17.9730   28.0660 O.3    55  DA55       -0.4373
   1113  OP2      -14.5170   18.3180   27.0440 O.2    55  DA55       -0.5172
   1114  O5'      -14.8330   17.1030   29.2030 O.3    55  DA55       -0.3114
   1115  C5'      -15.4340   16.1440   30.0610 C.3    55  DA55        0.1811
   1116  C4'      -14.4280   15.6720   31.0950 C.3    55  DA55        0.1746
   1117  O4'      -13.4480   14.7980   30.4700 O.3    55  DA55       -0.3327
   1118  C3'      -13.5920   16.7700   31.7430 C.3    55  DA55        0.1558
   1119  O3'      -14.3090   17.4200   32.7950 O.3    55  DA55       -0.3138
   1120  C2'      -12.4060   15.9530   32.2300 C.3    55  DA55        0.0865
   1121  C1'      -12.1640   15.0910   30.9910 C.3    55  DA55        0.2094
   1122  N9       -11.3220   15.8320   29.9920 N.ar   55  DA55       -0.2714
   1123  C8       -11.6820   16.4840   28.8410 C.ar   55  DA55        0.1815
   1124  N7       -10.6910   17.1180   28.2600 N.ar   55  DA55       -0.2193
   1125  C5        -9.6070   16.8670   29.0870 C.ar   55  DA55        0.1518
   1126  C6        -8.2580   17.2590   29.0230 C.ar   55  DA55        0.1919
   1127  N6        -7.7550   18.0190   28.0480 N.pl3  55  DA55       -0.1054
   1128  N1        -7.4360   16.8380   30.0080 N.ar   55  DA55       -0.2040
   1129  C2        -7.9420   16.0750   30.9840 C.ar   55  DA55        0.2016
   1130  N3        -9.1890   15.6410   31.1510 N.ar   55  DA55       -0.2048
   1131  C4        -9.9800   16.0770   30.1580 C.ar   55  DA55        0.1691
   1132  P        -14.0200   18.9360   33.1160 P.3    56  DG56        0.2141
   1133  OP1      -14.9790   19.5450   34.0590 O.3    56  DG56       -0.4373
   1134  OP2      -13.9210   19.4890   31.7570 O.2    56  DG56       -0.5172
   1135  O5'      -12.5720   19.1080   33.7570 O.3    56  DG56       -0.3114
   1136  C5'      -12.2180   18.4540   34.9770 C.3    56  DG56        0.1811
   1137  C4'      -10.8030   18.8110   35.3600 C.3    56  DG56        0.1746
   1138  O4'       -9.8650   18.2710   34.3970 O.3    56  DG56       -0.3327
   1139  C3'      -10.5000   20.2940   35.4030 C.3    56  DG56        0.1558
   1140  O3'      -10.9220   20.8260   36.6540 O.3    56  DG56       -0.3138
   1141  C2'       -8.9870   20.3200   35.1960 C.3    56  DG56        0.0865
   1142  C1'       -8.7850   19.1630   34.2310 C.3    56  DG56        0.2094
   1143  N9        -8.7830   19.5440   32.8830 N.ar   56  DG56       -0.2713
   1144  C8        -9.9140   19.8400   32.1610 C.ar   56  DG56        0.1816
   1145  N7        -9.6580   20.2650   30.9540 N.ar   56  DG56       -0.2173
   1146  C5        -8.2780   20.2470   30.8690 C.ar   56  DG56        0.1748
   1147  C6        -7.4140   20.6020   29.8010 C.ar   56  DG56        0.3023
   1148  O6        -7.7180   21.0180   28.6760 O.2    56  DG56       -0.2633
   1149  N1        -6.0740   20.4360   30.1390 N.ar   56  DG56       -0.1709
   1150  C2        -5.6220   19.9820   31.3550 C.ar   56  DG56        0.2606
   1151  N2        -4.2920   19.8860   31.4930 N.pl3  56  DG56       -0.0859
   1152  N3        -6.4120   19.6490   32.3560 N.ar   56  DG56       -0.1918
   1153  C4        -7.7180   19.8040   32.0520 C.ar   56  DG56        0.1722
   1154  P        -11.6060   22.3380   36.8570 P.3    57  DA57        0.2141
   1155  OP1      -11.9450   22.5090   38.2890 O.3    57  DA57       -0.4373
   1156  OP2      -12.5540   22.7980   35.8170 O.2    57  DA57       -0.5172
   1157  O5'      -10.2390   23.1010   36.5210 O.3    57  DA57       -0.3114
   1158  C5'      -10.1160   24.5130   36.6080 C.3    57  DA57        0.1812
   1159  C4'       -8.8010   24.9220   37.2320 C.3    57  DA57        0.1775
   1160  O4'       -8.7000   24.3650   38.5700 O.3    57  DA57       -0.3326
   1161  C3'       -7.5300   24.4510   36.5350 C.3    57  DA57        0.1859
   1162  O3'       -7.1590   25.2580   35.4260 O.3    57  DA57       -0.2202
   1163  C2'       -6.5040   24.4690   37.6640 C.3    57  DA57        0.0894
   1164  C1'       -7.3530   24.0680   38.8720 C.3    57  DA57        0.2095
   1165  N9        -7.1780   22.7640   39.2490 N.ar   57  DA57       -0.2714
   1166  C8        -8.0190   21.7300   38.9320 C.ar   57  DA57        0.1815
   1167  N7        -7.5860   20.5560   39.3250 N.ar   57  DA57       -0.2193
   1168  C5        -6.3770   20.8380   39.9420 C.ar   57  DA57        0.1518
   1169  C6        -5.4220   20.0190   40.5700 C.ar   57  DA57        0.1919
   1170  N6        -5.5440   18.6950   40.6840 N.pl3  57  DA57       -0.1054
   1171  N1        -4.3250   20.6160   41.0830 N.ar   57  DA57       -0.2040
   1172  C2        -4.2040   21.9440   40.9680 C.ar   57  DA57        0.2016
   1173  N3        -5.0330   22.8180   40.4020 N.ar   57  DA57       -0.2048
   1174  C4        -6.1120   22.1930   39.9020 C.ar   57  DA57        0.1691
   1175  P         -7.4410   24.7040   33.7630 P.3    58  DC58        0.4149
   1176  OP1       -7.1180   25.4760   32.5430 O.3    58  DC58       -0.1481
   1177  OP2       -7.8030   23.2690   33.6780 O.2    58  DC58       -0.2668
   1178  O5'       -6.1850   24.7130   34.7540 O.3    58  DC58       -0.2177
   1179  C5'       -5.3030   25.8200   34.8410 C.3    58  DC58        0.2140
   1180  C4'       -3.9400   25.3820   35.3120 C.3    58  DC58        0.1776
   1181  O4'       -4.0600   24.7750   36.6240 O.3    58  DC58       -0.3326
   1182  C3'       -3.2820   24.2860   34.4920 C.3    58  DC58        0.1559
   1183  O3'       -2.6960   24.7240   33.2810 O.3    58  DC58       -0.3138
   1184  C2'       -2.2920   23.6960   35.4830 C.3    58  DC58        0.0866
   1185  C1'       -3.1450   23.7050   36.7470 C.3    58  DC58        0.2106
   1186  N1        -3.9310   22.4490   36.9430 N.ar   58  DC58       -0.2556
   1187  C2        -3.2770   21.2640   37.2990 C.ar   58  DC58        0.3531
   1188  O2        -2.0380   21.2700   37.3920 O.2    58  DC58       -0.2443
   1189  N3        -4.0120   20.1500   37.5290 N.ar   58  DC58       -0.1739
   1190  C4        -5.3400   20.1910   37.4160 C.ar   58  DC58        0.1759
   1191  N4        -6.0220   19.0670   37.6530 N.pl3  58  DC58       -0.1070
   1192  C5        -6.0210   21.3820   37.0570 C.ar   58  DC58        0.0566
   1193  C6        -5.2920   22.4800   36.8300 C.ar   58  DC58        0.0849
   1194  P         -2.6690   23.6880   32.0270 P.3    59  DA59        0.2141
   1195  OP1       -2.2820   24.7790   31.0840 O.2    59  DA59       -0.5172
   1196  OP2       -3.9610   22.9860   31.8430 O.3    59  DA59       -0.4373
   1197  O5'       -1.5130   22.6010   32.0480 O.3    59  DA59       -0.3114
   1198  C5'       -0.1770   22.9950   32.2660 C.3    59  DA59        0.1811
   1199  C4'        0.4460   22.1300   33.3170 C.3    59  DA59        0.1746
   1200  O4'       -0.4550   22.0570   34.4580 O.3    59  DA59       -0.3327
   1201  C3'        0.6720   20.6810   32.9230 C.3    59  DA59        0.1558
   1202  O3'        1.8650   20.5070   32.1610 O.3    59  DA59       -0.3138
   1203  C2'        0.6850   19.9760   34.2790 C.3    59  DA59        0.0865
   1204  C1'       -0.3810   20.7680   35.0490 C.3    59  DA59        0.2094
   1205  N9        -1.4960   19.9480   34.8870 N.ar   59  DA59       -0.2714
   1206  C8        -2.6550   20.5320   34.4470 C.ar   59  DA59        0.1815
   1207  N7        -3.6940   19.7320   34.4750 N.ar   59  DA59       -0.2193
   1208  C5        -3.1820   18.5410   34.9650 C.ar   59  DA59        0.1518
   1209  C6        -3.7760   17.2950   35.2320 C.ar   59  DA59        0.1919
   1210  N6        -5.0710   17.0350   35.0340 N.pl3  59  DA59       -0.1054
   1211  N1        -2.9840   16.3140   35.7150 N.ar   59  DA59       -0.2040
   1212  C2        -1.6870   16.5750   35.9150 C.ar   59  DA59        0.2016
   1213  N3        -1.0150   17.7040   35.7030 N.ar   59  DA59       -0.2048
   1214  C4        -1.8300   18.6580   35.2220 C.ar   59  DA59        0.1691
   1215  P          1.6730   19.6500   31.0180 P.3    60  DT60        0.2141
   1216  OP1        3.1550   19.6470   31.1280 O.3    60  DT60       -0.4373
   1217  OP2        1.0340   20.2510   29.8220 O.2    60  DT60       -0.5172
   1218  O5'        1.1480   18.1540   31.1590 O.3    60  DT60       -0.3114
   1219  C5'        1.6130   17.3340   32.2270 C.3    60  DT60        0.1811
   1220  C4'        0.4620   16.6440   32.9180 C.3    60  DT60        0.1746
   1221  O4'       -0.6610   17.5530   33.0120 O.3    60  DT60       -0.3327
   1222  C3'       -0.1200   15.3940   32.2710 C.3    60  DT60        0.1558
   1223  O3'        0.6450   14.2390   32.6120 O.3    60  DT60       -0.3138
   1224  C2'       -1.5090   15.3350   32.8940 C.3    60  DT60        0.0866
   1225  C1'       -1.8730   16.8170   32.9780 C.3    60  DT60        0.2106
   1226  N1        -2.6380   17.0000   31.6100 N.ar   60  DT60       -0.2557
   1227  C2        -3.9950   16.7540   31.5170 C.ar   60  DT60        0.3545
   1228  O2        -4.6150   16.1270   32.3580 O.2    60  DT60       -0.2443
   1229  N3        -4.6040   17.2700   30.3990 N.ar   60  DT60       -0.1532
   1230  C4        -4.0060   17.9900   29.3860 C.ar   60  DT60        0.2843
   1231  O4        -4.6860   18.3890   28.4440 O.2    60  DT60       -0.2652
   1232  C5        -2.5960   18.2030   29.5540 C.ar   60  DT60        0.1000
   1233  C6        -1.9780   17.7120   30.6320 C.ar   60  DT60        0.0865
   1234  C7        -1.8540   18.9760   28.5040 C.3    60  DT60        0.2423
   1235  P          0.6700   13.1620   31.6850 P.3    61  DC61        0.2141
   1236  OP1        1.6160   12.0530   31.9400 O.3    61  DC61       -0.4373
   1237  OP2        0.5370   13.7320   30.3240 O.2    61  DC61       -0.5172
   1238  O5'       -0.8200   12.7120   32.0500 O.3    61  DC61       -0.3114
   1239  C5'       -1.1510   12.0560   33.2650 C.3    61  DC61        0.1811
   1240  C4'       -2.5810   11.5710   33.2400 C.3    61  DC61        0.1746
   1241  O4'       -3.4860   12.6910   33.0440 O.3    61  DC61       -0.3327
   1242  C3'       -2.9330   10.5970   32.1210 C.3    61  DC61        0.1558
   1243  O3'       -2.5370    9.2680   32.4230 O.3    61  DC61       -0.3138
   1244  C2'       -4.4400   10.7940   31.9700 C.3    61  DC61        0.0866
   1245  C1'       -4.5770   12.2940   32.2400 C.3    61  DC61        0.2106
   1246  N1        -4.5290   13.0980   30.9700 N.ar   61  DC61       -0.2556
   1247  C2        -5.7320   13.2310   30.2680 C.ar   61  DC61        0.3531
   1248  O2        -6.7720   12.7720   30.7710 O.2    61  DC61       -0.2443
   1249  N3        -5.7280   13.8510   29.0640 N.ar   61  DC61       -0.1739
   1250  C4        -4.5880   14.3270   28.5620 C.ar   61  DC61        0.1759
   1251  N4        -4.6330   14.9300   27.3720 N.pl3  61  DC61       -0.1070
   1252  C5        -3.3580   14.2030   29.2580 C.ar   61  DC61        0.0566
   1253  C6        -3.3660   13.5890   30.4460 C.ar   61  DC61        0.0849
   1254  P         -2.6920    7.9950   31.4080 P.3    62  DC62        0.2141
   1255  OP1       -2.1490    6.7460   31.9970 O.3    62  DC62       -0.4373
   1256  OP2       -1.9210    8.7030   30.3590 O.2    62  DC62       -0.5172
   1257  O5'       -4.1430    7.6990   30.8170 O.3    62  DC62       -0.3114
   1258  C5'       -5.1210    7.0090   31.6070 C.3    62  DC62        0.1811
   1259  C4'       -6.4830    7.0620   30.9510 C.3    62  DC62        0.1746
   1260  O4'       -6.8680    8.4480   30.7340 O.3    62  DC62       -0.3327
   1261  C3'       -6.6480    6.4510   29.5670 C.3    62  DC62        0.1558
   1262  O3'       -6.7660    5.0280   29.5780 O.3    62  DC62       -0.3138
   1263  C2'       -7.9590    7.0860   29.1310 C.3    62  DC62        0.0866
   1264  C1'       -7.7760    8.5170   29.6420 C.3    62  DC62        0.2106
   1265  N1        -7.2230    9.3580   28.6520 N.ar   62  DC62       -0.2556
   1266  C2        -8.0290    9.9410   27.6670 C.ar   62  DC62        0.3531
   1267  O2        -9.2410    9.6680   27.6470 O.2    62  DC62       -0.2443
   1268  N3        -7.4660   10.7820   26.7660 N.ar   62  DC62       -0.1739
   1269  C4        -6.1600   11.0440   26.8250 C.ar   62  DC62        0.1759
   1270  N4        -5.6490   11.8790   25.9170 N.pl3  62  DC62       -0.1070
   1271  C5        -5.3260   10.4640   27.8160 C.ar   62  DC62        0.0566
   1272  C6        -5.8860    9.6340   28.7030 C.ar   62  DC62        0.0849
   1273  P         -6.1230    4.2180   28.5530 P.3    63  DT63        0.2141
   1274  OP1       -6.1540    2.8060   28.9890 O.3    63  DT63       -0.4373
   1275  OP2       -4.8240    4.8540   28.2320 O.2    63  DT63       -0.5172
   1276  O5'       -7.1180    4.3490   27.3120 O.3    63  DT63       -0.3114
   1277  C5'       -8.4110    3.7930   27.4430 C.3    63  DT63        0.1811
   1278  C4'       -9.2160    4.0670   26.1940 C.3    63  DT63        0.1746
   1279  O4'       -9.4500    5.4910   26.0730 O.3    63  DT63       -0.3327
   1280  C3'       -8.5000    3.6810   24.9130 C.3    63  DT63        0.1558
   1281  O3'       -8.7170    2.3010   24.6640 O.3    63  DT63       -0.3138
   1282  C2'       -9.1840    4.5910   23.8920 C.3    63  DT63        0.0866
   1283  C1'       -9.4000    5.8630   24.7090 C.3    63  DT63        0.2106
   1284  N1        -8.2850    6.8740   24.5240 N.ar   63  DT63       -0.2559
   1285  C2        -8.3570    7.6460   23.3800 C.ar   63  DT63        0.3545
   1286  O2        -9.2410    7.5220   22.5500 O.2    63  DT63       -0.2443
   1287  N3        -7.3530    8.5720   23.2390 N.ar   63  DT63       -0.1533
   1288  C4        -6.3060    8.8000   24.1080 C.ar   63  DT63        0.2804
   1289  O4        -5.4800    9.6700   23.8450 O.2    63  DT63       -0.2654
   1290  C5        -6.3000    7.9590   25.2720 C.ar   63  DT63        0.0534
   1291  C6        -7.2650    7.0490   25.4340 C.ar   63  DT63        0.0824
   1292  C7        -5.2010    8.1300   26.2780 C.3    63  DT63        0.0377
   1293  P         -7.8000    1.3460   23.4430 P.3    64  DA64        0.2141
   1294  OP1       -7.0580    2.4710   24.0500 O.3    64  DA64       -0.4373
   1295  OP2       -7.3100    0.7730   22.1710 O.2    64  DA64       -0.5172
   1296  O5'       -7.7640    0.1070   24.4570 O.3    64  DA64       -0.3114
   1297  C5'       -6.5770   -0.1310   25.2140 C.3    64  DA64        0.1811
   1298  C4'       -6.1320   -1.5760   25.1790 C.3    64  DA64        0.1746
   1299  O4'       -6.2390   -2.1390   26.5150 O.3    64  DA64       -0.3327
   1300  C3'       -6.9270   -2.4800   24.2430 C.3    64  DA64        0.1558
   1301  O3'       -6.1120   -3.1180   23.2670 O.3    64  DA64       -0.3138
   1302  C2'       -7.5720   -3.5390   25.1310 C.3    64  DA64        0.0865
   1303  C1'       -6.9860   -3.3380   26.5230 C.3    64  DA64        0.2094
   1304  N9        -8.1680   -3.0120   27.3100 N.ar   64  DA64       -0.2714
   1305  C8        -9.1680   -2.1000   27.0950 C.ar   64  DA64        0.1815
   1306  N7       -10.3670   -2.5550   27.3750 N.ar   64  DA64       -0.2193
   1307  C5       -10.1380   -3.8530   27.8010 C.ar   64  DA64        0.1518
   1308  C6       -11.0030   -4.8700   28.2420 C.ar   64  DA64        0.1919
   1309  N6       -12.3280   -4.7280   28.3290 N.pl3  64  DA64       -0.1054
   1310  N1       -10.4530   -6.0520   28.5940 N.ar   64  DA64       -0.2040
   1311  C2        -9.1250   -6.1930   28.5070 C.ar   64  DA64        0.2016
   1312  N3        -8.2100   -5.3120   28.1090 N.ar   64  DA64       -0.2048
   1313  C4        -8.7890   -4.1490   27.7660 C.ar   64  DA64        0.1691
   1314  P         -6.7570   -3.2320   21.9490 P.3    65  DT65        0.2141
   1315  OP1       -5.7960   -3.3750   20.8310 O.2    65  DT65       -0.5172
   1316  OP2       -7.8720   -2.2630   21.8610 O.3    65  DT65       -0.4373
   1317  O5'       -7.3650   -4.6690   22.3000 O.3    65  DT65       -0.3114
   1318  C5'       -6.4700   -5.7590   22.5080 C.3    65  DT65        0.1811
   1319  C4'       -7.1970   -6.9770   23.0380 C.3    65  DT65        0.1746
   1320  O4'       -7.7590   -6.6750   24.3340 O.3    65  DT65       -0.3327
   1321  C3'       -8.3740   -7.4110   22.1820 C.3    65  DT65        0.1558
   1322  O3'       -7.9540   -8.2950   21.1580 O.3    65  DT65       -0.3138
   1323  C2'       -9.3260   -8.0550   23.1850 C.3    65  DT65        0.0866
   1324  C1'       -9.0770   -7.1810   24.4160 C.3    65  DT65        0.2106
   1325  N1       -10.0480   -6.1200   24.4640 N.ar   65  DT65       -0.2559
   1326  C2       -11.3700   -6.3730   24.7770 C.ar   65  DT65        0.3545
   1327  O2       -11.8060   -7.4950   24.9600 O.2    65  DT65       -0.2443
   1328  N3       -12.1690   -5.2590   24.8690 N.ar   65  DT65       -0.1533
   1329  C4       -11.7880   -3.9460   24.6820 C.ar   65  DT65        0.2804
   1330  O4       -12.6210   -3.0510   24.7990 O.2    65  DT65       -0.2654
   1331  C5       -10.4000   -3.7660   24.3590 C.ar   65  DT65        0.0534
   1332  C6        -9.6010   -4.8320   24.2640 C.ar   65  DT65        0.0824
   1333  C7        -9.8870   -2.3740   24.1360 C.3    65  DT65        0.0377
   1334  P         -8.0290   -7.5690   19.5450 P.3    66  DG66        0.2141
   1335  OP1       -7.3140   -8.3440   18.4920 O.2    66  DG66       -0.5172
   1336  OP2       -8.2590   -6.1110   19.3540 O.3    66  DG66       -0.4373
   1337  O5'       -9.4340   -8.2800   19.7780 O.3    66  DG66       -0.3114
   1338  C5'       -9.5200   -9.7020   19.8260 C.3    66  DG66        0.1811
   1339  C4'      -10.8900  -10.1330   20.2760 C.3    66  DG66        0.1746
   1340  O4'      -11.2670   -9.3550   21.4450 O.3    66  DG66       -0.3327
   1341  C3'      -12.0580   -9.8870   19.3350 C.3    66  DG66        0.1558
   1342  O3'      -12.1190  -10.8670   18.2980 O.3    66  DG66       -0.3138
   1343  C2'      -13.2360  -10.0120   20.2990 C.3    66  DG66        0.0865
   1344  C1'      -12.6840   -9.2940   21.5320 C.3    66  DG66        0.2094
   1345  N9       -13.0390   -7.9200   21.6120 N.ar   66  DG66       -0.2713
   1346  C8       -12.2630   -6.8030   21.4200 C.ar   66  DG66        0.1816
   1347  N7       -12.9200   -5.6860   21.5760 N.ar   66  DG66       -0.2173
   1348  C5       -14.2060   -6.0860   21.8920 C.ar   66  DG66        0.1747
   1349  C6       -15.3680   -5.3220   22.1710 C.ar   66  DG66        0.3014
   1350  O6       -15.4870   -4.0900   22.1950 O.2    66  DG66       -0.2635
   1351  N1       -16.4690   -6.1290   22.4420 N.ar   66  DG66       -0.1712
   1352  C2       -16.4530   -7.5030   22.4450 C.ar   66  DG66        0.3095
   1353  N2       -17.6140   -8.1070   22.7310 N.2    66  DG66       -0.3329
   1354  N3       -15.3810   -8.2270   22.1870 N.ar   66  DG66       -0.1797
   1355  C4       -14.3000   -7.4640   21.9190 C.ar   66  DG66        0.1734
   1356  P        -13.1600  -10.6330   17.0440 P.3    67  DC67        0.2141
   1357  OP1      -13.0180  -11.8060   16.1520 O.2    67  DC67       -0.5172
   1358  OP2      -13.0470   -9.2640   16.4890 O.3    67  DC67       -0.4373
   1359  O5'      -14.6020  -10.6540   17.7440 O.3    67  DC67       -0.3114
   1360  C5'      -15.1090  -11.8390   18.3420 C.3    67  DC67        0.1811
   1361  C4'      -16.4580  -11.6130   18.9810 C.3    67  DC67        0.1746
   1362  O4'      -16.3300  -10.6660   20.0720 O.3    67  DC67       -0.3327
   1363  C3'      -17.5340  -11.0190   18.0830 C.3    67  DC67        0.1558
   1364  O3'      -18.1830  -12.0070   17.3000 O.3    67  DC67       -0.3138
   1365  C2'      -18.4560  -10.3000   19.0630 C.3    67  DC67        0.0866
   1366  C1'      -17.4800   -9.8530   20.1530 C.3    67  DC67        0.2106
   1367  N1       -17.0710   -8.4550   19.9640 N.ar   67  DC67       -0.2556
   1368  C2       -17.9810   -7.4570   20.3330 C.ar   67  DC67        0.3531
   1369  O2       -19.0410   -7.7910   20.8910 O.2    67  DC67       -0.2443
   1370  N3       -17.6820   -6.1620   20.0710 N.ar   67  DC67       -0.1739
   1371  C4       -16.5340   -5.8510   19.4700 C.ar   67  DC67        0.1759
   1372  N4       -16.2820   -4.5620   19.2320 N.pl3  67  DC67       -0.1070
   1373  C5       -15.5980   -6.8470   19.0880 C.ar   67  DC67        0.0566
   1374  C6       -15.8970   -8.1250   19.3480 C.ar   67  DC67        0.0849
   1375  P        -19.3970  -11.5860   16.0960 P.3    68  DG68        0.2141
   1376  OP1      -20.3030  -12.4250   15.2900 O.2    68  DG68       -0.5172
   1377  OP2      -18.4780  -10.6410   15.4280 O.3    68  DG68       -0.4373
   1378  O5'      -20.3540  -10.8070   17.0750 O.3    68  DG68       -0.3114
   1379  C5'      -21.5910  -11.3810   17.2820 C.3    68  DG68        0.1811
   1380  C4'      -22.5880  -10.2480   17.3720 C.3    68  DG68        0.1746
   1381  O4'      -22.1380   -9.2620   18.3330 O.3    68  DG68       -0.3327
   1382  C3'      -22.7410   -9.4400   16.1040 C.3    68  DG68        0.1558
   1383  O3'      -23.5670  -10.1840   15.2320 O.3    68  DG68       -0.3138
   1384  C2'      -23.4300   -8.2100   16.6910 C.3    68  DG68        0.0865
   1385  C1'      -22.6670   -7.9980   17.9920 C.3    68  DG68        0.2094
   1386  N9       -21.5000   -7.1060   17.7820 N.ar   68  DG68       -0.2713
   1387  C8       -20.2280   -7.3900   17.3470 C.ar   68  DG68        0.1816
   1388  N7       -19.5260   -6.3240   17.0770 N.ar   68  DG68       -0.2173
   1389  C5       -20.3800   -5.2720   17.3500 C.ar   68  DG68        0.1748
   1390  C6       -20.1820   -3.8710   17.2460 C.ar   68  DG68        0.3023
   1391  O6       -19.1680   -3.2660   16.8770 O.2    68  DG68       -0.2633
   1392  N1       -21.3150   -3.1560   17.6230 N.ar   68  DG68       -0.1709
   1393  C2       -22.4940   -3.7200   18.0490 C.ar   68  DG68        0.2606
   1394  N2       -23.4750   -2.8670   18.3710 N.pl3  68  DG68       -0.0859
   1395  N3       -22.6930   -5.0200   18.1500 N.ar   68  DG68       -0.1918
   1396  C4       -21.6060   -5.7340   17.7880 C.ar   68  DG68        0.1722
   1397  P        -23.8910   -9.5760   13.7370 P.3    69  DT69        0.2141
   1398  OP1      -24.6620  -10.5950   12.9780 O.2    69  DT69       -0.5172
   1399  OP2      -22.4350   -9.7720   13.9490 O.3    69  DT69       -0.4373
   1400  O5'      -24.1340   -8.1380   13.0790 O.3    69  DT69       -0.3114
   1401  C5'      -25.4730   -7.6730   12.8020 C.3    69  DT69        0.1811
   1402  C4'      -25.5060   -6.1670   12.6050 C.3    69  DT69        0.1746
   1403  O4'      -24.8490   -5.5150   13.7200 O.3    69  DT69       -0.3327
   1404  C3'      -24.8230   -5.5830   11.3740 C.3    69  DT69        0.1558
   1405  O3'      -25.6620   -5.6310   10.2200 O.3    69  DT69       -0.3138
   1406  C2'      -24.5560   -4.1400   11.7930 C.3    69  DT69        0.0866
   1407  C1'      -24.2720   -4.2950   13.2860 C.3    69  DT69        0.2106
   1408  N1       -22.8280   -4.3130   13.5610 N.ar   69  DT69       -0.2559
   1409  C2       -22.0950   -3.1470   13.4480 C.ar   69  DT69        0.3545
   1410  O2       -22.5920   -2.0760   13.1460 O.2    69  DT69       -0.2443
   1411  N3       -20.7510   -3.2780   13.7020 N.ar   69  DT69       -0.1533
   1412  C4       -20.0810   -4.4330   14.0490 C.ar   69  DT69        0.2804
   1413  O4       -18.8690   -4.3930   14.2470 O.2    69  DT69       -0.2654
   1414  C5       -20.9110   -5.6010   14.1450 C.ar   69  DT69        0.0534
   1415  C6       -22.2210   -5.5020   13.9030 C.ar   69  DT69        0.0824
   1416  C7       -20.2750   -6.9080   14.5170 C.3    69  DT69        0.0377
   1417  P        -25.0040   -5.7620    8.7190 P.3    70  DG70        0.2141
   1418  OP1      -26.1440   -6.0370    7.8140 O.2    70  DG70       -0.5172
   1419  OP2      -23.6800   -6.3850    8.5000 O.3    70  DG70       -0.4373
   1420  O5'      -24.6910   -4.1990    8.6870 O.3    70  DG70       -0.3114
   1421  C5'      -25.7410   -3.2980    8.3980 C.3    70  DG70        0.1811
   1422  C4'      -25.3500   -1.8860    8.7440 C.3    70  DG70        0.1746
   1423  O4'      -24.6040   -1.8660    9.9900 O.3    70  DG70       -0.3327
   1424  C3'      -24.4240   -1.1690    7.7730 C.3    70  DG70        0.1558
   1425  O3'      -25.0810   -0.7080    6.6050 O.3    70  DG70       -0.3138
   1426  C2'      -23.9280   -0.0390    8.6560 C.3    70  DG70        0.0865
   1427  C1'      -23.7200   -0.7710    9.9820 C.3    70  DG70        0.2094
   1428  N9       -22.3330   -1.1940   10.1050 N.ar   70  DG70       -0.2713
   1429  C8       -21.9080   -2.5010   10.1100 C.ar   70  DG70        0.1816
   1430  N7       -20.6260   -2.6240   10.3200 N.ar   70  DG70       -0.2173
   1431  C5       -20.1750   -1.3260   10.4630 C.ar   70  DG70        0.1748
   1432  C6       -18.8710   -0.8230   10.7070 C.ar   70  DG70        0.3023
   1433  O6       -17.8190   -1.4590   10.8500 O.2    70  DG70       -0.2633
   1434  N1       -18.8540    0.5670   10.7810 N.ar   70  DG70       -0.1709
   1435  C2       -19.9580    1.3730   10.6390 C.ar   70  DG70        0.2606
   1436  N2       -19.7440    2.6920   10.7430 N.pl3  70  DG70       -0.0859
   1437  N3       -21.1750    0.9210   10.4110 N.ar   70  DG70       -0.1918
   1438  C4       -21.2150   -0.4260   10.3340 C.ar   70  DG70        0.1722
   1439  P        -24.2790   -0.3320    5.3040 P.3    71  DC71        0.2141
   1440  OP1      -25.2120    0.0640    4.1830 O.2    71  DC71       -0.5172
   1441  OP2      -23.8140   -1.7410    5.1590 O.3    71  DC71       -0.4373
   1442  O5'      -23.1680    0.7880    5.5000 O.3    71  DC71       -0.3114
   1443  C5'      -23.8000    2.0960    5.3910 C.3    71  DC71        0.1811
   1444  C4'      -22.6960    3.0490    5.7660 C.3    71  DC71        0.1744
   1445  O4'      -22.0110    2.5970    6.8780 O.3    71  DC71       -0.3348
   1446  C3'      -21.5860    3.1820    4.7180 C.3    71  DC71        0.1555
   1447  O3'      -22.0530    3.9290    3.5920 O.3    71  DC71       -0.3139
   1448  C2'      -20.5000    3.8300    5.5670 C.3    71  DC71        0.0836
   1449  C1'      -20.6380    3.0700    6.8630 C.3    71  DC71        0.1998
   1450  N1       -19.8000    1.8510    6.9380 N.am   71  DC71       -0.2152
   1451  C2       -18.4460    1.9630    7.2750 C.2    71  DC71        0.4232
   1452  O2       -17.9710    3.0940    7.4760 O.2    71  DC71       -0.2211
   1453  N3       -17.6960    0.8390    7.3710 N.am   71  DC71       -0.0110
   1454  C4       -18.2480   -0.3530    7.1460 C.2    71  DC71        0.3918
   1455  N4       -17.4690   -1.4330    7.2530 N.pl3  71  DC71        0.2121
   1456  C5       -19.6180   -0.4880    6.8030 C.2    71  DC71        0.0898
   1457  C6       -20.3550    0.6240    6.7090 C.3    71  DC71        0.1335
   1458  P        -21.2460    3.6850    2.2100 P.3    72  DT72        0.2141
   1459  OP1      -21.9540    4.6350    1.3470 O.2    72  DT72       -0.5172
   1460  OP2      -20.6310    2.4270    1.6360 O.3    72  DT72       -0.4373
   1461  O5'      -20.0600    4.4800    2.9330 O.3    72  DT72       -0.3114
   1462  C5'      -19.2520    5.4090    2.2080 C.3    72  DT72        0.1811
   1463  C4'      -17.9810    5.6590    2.9700 C.3    72  DT72        0.1746
   1464  O4'      -17.9560    4.5700    3.9060 O.3    72  DT72       -0.3327
   1465  C3'      -16.6380    5.4280    2.3300 C.3    72  DT72        0.1558
   1466  O3'      -16.1700    6.5540    1.5450 O.3    72  DT72       -0.3138
   1467  C2'      -15.7970    5.2140    3.5790 C.3    72  DT72        0.0866
   1468  C1'      -16.6450    4.2270    4.3080 C.3    72  DT72        0.2106
   1469  N1       -16.4740    2.9050    4.1910 N.ar   72  DT72       -0.2559
   1470  C2       -15.2650    2.2960    4.4690 C.ar   72  DT72        0.3545
   1471  O2       -14.2400    2.9200    4.6800 O.2    72  DT72       -0.2443
   1472  N3       -15.2970    0.9230    4.4900 N.ar   72  DT72       -0.1533
   1473  C4       -16.3930    0.1150    4.2660 C.ar   72  DT72        0.2804
   1474  O4       -16.2650   -1.1060    4.3200 O.2    72  DT72       -0.2654
   1475  C5       -17.6100    0.8210    3.9830 C.ar   72  DT72        0.0534
   1476  C6       -17.6070    2.1570    3.9560 C.ar   72  DT72        0.0824
   1477  C7       -18.8580    0.0300    3.7240 C.3    72  DT72        0.0377
   1478  P        -15.7210    6.0130    0.3510 P.3    73  DA73        0.2141
   1479  OP1      -16.0320    7.4590    0.1670 O.3    73  DA73       -0.4373
   1480  OP2      -15.6600    5.1190   -0.8290 O.2    73  DA73       -0.5172
   1481  O5'      -14.3540    5.9030    1.1580 O.3    73  DA73       -0.3114
   1482  C5'      -13.3190    5.0420    0.7160 C.3    73  DA73        0.1811
   1483  C4'      -11.9710    5.5380    1.1990 C.3    73  DA73        0.1746
   1484  O4'      -11.5900    6.7660    0.5060 O.3    73  DA73       -0.3327
   1485  C3'      -11.8530    5.8110    2.6950 C.3    73  DA73        0.1558
   1486  O3'      -10.6170    5.3100    3.2060 O.3    73  DA73       -0.3138
   1487  C2'      -11.8730    7.3360    2.7800 C.3    73  DA73        0.0865
   1488  C1'      -11.2210    7.7470    1.4510 C.3    73  DA73        0.2094
   1489  N9       -11.8530    9.0230    0.9460 N.ar   73  DA73       -0.2714
   1490  C8       -13.0500    9.2010    0.3030 C.ar   73  DA73        0.1815
   1491  N7       -13.2280   10.4170   -0.1570 N.ar   73  DA73       -0.2193
   1492  C5       -12.0690   11.0830    0.2100 C.ar   73  DA73        0.1518
   1493  C6       -11.6380   12.4080    0.0160 C.ar   73  DA73        0.1919
   1494  N6       -12.3570   13.3330   -0.6230 N.pl3  73  DA73       -0.1054
   1495  N1       -10.4290   12.7510    0.5080 N.ar   73  DA73       -0.2040
   1496  C2        -9.7090   11.8220    1.1480 C.ar   73  DA73        0.2016
   1497  N3       -10.0060   10.5480    1.3910 N.ar   73  DA73       -0.2048
   1498  C4       -11.2140   10.2390    0.8910 C.ar   73  DA73        0.1691
   1499  P        -10.1780    3.7730    4.4030 P.3    74  DC74        0.2141
   1500  OP1       -8.8560    3.1020    4.4660 O.3    74  DC74       -0.4373
   1501  OP2      -11.3530    3.0330    3.8590 O.2    74  DC74       -0.5172
   1502  O5'      -10.5580    4.2770    5.8680 O.3    74  DC74       -0.3114
   1503  C5'      -10.1040    5.5560    6.3550 C.3    74  DC74        0.1812
   1504  C4'      -10.8410    5.9400    7.6180 C.3    74  DC74        0.1772
   1505  O4'      -12.2650    5.9940    7.3380 O.3    74  DC74       -0.3344
   1506  C3'      -10.6720    5.0100    8.8150 C.3    74  DC74        0.1857
   1507  O3'      -10.7070    5.8270    9.9860 O.3    74  DC74       -0.2203
   1508  C2'      -11.9280    4.1430    8.7520 C.3    74  DC74        0.0868
   1509  C1'      -12.9570    5.1470    8.2320 C.3    74  DC74        0.2027
   1510  N1       -13.8930    4.5930    8.0470 N.pl3  74  DC74       -0.2079
   1511  C2       -15.0540    4.4440    8.8150 C.2    74  DC74        0.3531
   1512  O2       -15.3870    5.3650    9.5790 O.2    74  DC74       -0.4035
   1513  N3       -15.7760    3.3030    8.7040 N.2    74  DC74       -0.3339
   1514  C4       -15.3790    2.3400    7.8710 C.2    74  DC74        0.2468
   1515  N4       -16.1230    1.2340    7.7950 N.pl3  74  DC74       -0.0158
   1516  C5       -14.2060    2.4720    7.0840 C.2    74  DC74        0.0693
   1517  C6       -13.4960    3.5990    7.1970 C.2    74  DC74        0.0765
   1518  P        -10.0160    5.4810   11.5310 P.3    75  DC75        0.5411
   1519  OP1       -9.6360    5.4390   12.9600 O.2    75  DC75       -0.2272
   1520  OP2      -10.7170    4.3280   10.9250 O.2    75  DC75       -0.2272
   1521  O5'      -11.0060    6.7200   11.2990 O.3    75  DC75       -0.2722
   1522  C5'      -11.9530    7.0760   12.2980 C.3    75  DC75        0.1851
   1523  C4'      -13.3320    7.3260   11.7320 C.3    75  DC75        0.1781
   1524  O4'      -13.5660    6.4430   10.6070 O.3    75  DC75       -0.3053
   1525  C3'      -14.4930    7.0700   12.6840 C.3    75  DC75        0.1597
   1526  O3'      -14.8100    8.2010   13.4760 O.3    75  DC75       -0.3137
   1527  C2'      -15.6350    6.6380   11.7700 C.3    75  DC75        0.1279
   1528  C1'      -14.8870    5.9460   10.6290 C.3    75  DC75        0.3198
   1529  N1       -14.8100    4.4230   11.0140 N.ar   75  DC75       -0.2263
   1530  C2       -15.9370    3.6040   10.8770 C.ar   75  DC75        0.3556
   1531  O2       -17.0390    4.1360   10.6550 O.2    75  DC75       -0.2442
   1532  N3       -15.7960    2.2620   10.9910 N.ar   75  DC75       -0.1738
   1533  C4       -14.5940    1.7360   11.2310 C.ar   75  DC75        0.1759
   1534  N4       -14.5030    0.4080   11.3360 N.pl3  75  DC75       -0.1070
   1535  C5       -13.4400    2.5480   11.3730 C.ar   75  DC75        0.0567
   1536  C6       -13.5840    3.8730   11.2600 C.ar   75  DC75        0.0882
   1537  P        -15.1810    8.0290   14.7910 P.3    76  DG76        0.2141
   1538  OP1      -15.0290    9.3400   15.4680 O.2    76  DG76       -0.5172
   1539  OP2      -14.8920    6.7650   15.5210 O.3    76  DG76       -0.4373
   1540  O5'      -16.6860    7.9350   14.2600 O.3    76  DG76       -0.3114
   1541  C5'      -17.6890    7.4460   15.1260 C.3    76  DG76        0.1811
   1542  C4'      -18.9350    7.1320   14.3540 C.3    76  DG76        0.1746
   1543  O4'      -18.6550    6.2850   13.2010 O.3    76  DG76       -0.3327
   1544  C3'      -19.9210    6.3040   15.1550 C.3    76  DG76        0.1558
   1545  O3'      -20.5810    7.0810   16.1100 O.3    76  DG76       -0.3138
   1546  C2'      -20.7830    5.6970   14.0700 C.3    76  DG76        0.0865
   1547  C1'      -19.7090    5.3330   13.0440 C.3    76  DG76        0.2094
   1548  N9       -19.1870    3.9820   13.4010 N.ar   76  DG76       -0.2713
   1549  C8       -17.8840    3.7080   13.7410 C.ar   76  DG76        0.1816
   1550  N7       -17.6520    2.4350   13.9060 N.ar   76  DG76       -0.2173
   1551  C5       -18.8700    1.8290   13.6600 C.ar   76  DG76        0.1748
   1552  C6       -19.2430    0.4610   13.6870 C.ar   76  DG76        0.3023
   1553  O6       -18.5350   -0.5210   13.9440 O.2    76  DG76       -0.2633
   1554  N1       -20.5880    0.2810   13.3750 N.ar   76  DG76       -0.1709
   1555  C2       -21.4650    1.2950   13.0730 C.ar   76  DG76        0.2606
   1556  N2       -22.7230    0.9250   12.7970 N.pl3  76  DG76       -0.0859
   1557  N3       -21.1340    2.5710   13.0450 N.ar   76  DG76       -0.1918
   1558  C4       -19.8330    2.7690   13.3460 C.ar   76  DG76        0.1722
   1559  P        -20.1640    6.8820   17.7180 P.3    77  DT77        0.2141
   1560  OP1      -20.4860    7.9720   18.6690 O.3    77  DT77       -0.4373
   1561  OP2      -18.7660    6.3590   17.6570 O.2    77  DT77       -0.5172
   1562  O5'      -21.1590    5.6640   18.0280 O.3    77  DT77       -0.3114
   1563  C5'      -22.5760    5.8610   18.0550 C.3    77  DT77        0.1811
   1564  C4'      -23.3010    4.5290   18.0850 C.3    77  DT77        0.1746
   1565  O4'      -22.9480    3.7720   16.9010 O.3    77  DT77       -0.3327
   1566  C3'      -22.9750    3.5720   19.2240 C.3    77  DT77        0.1558
   1567  O3'      -23.7260    3.8550   20.3850 O.3    77  DT77       -0.3138
   1568  C2'      -23.4390    2.2460   18.6510 C.3    77  DT77        0.0866
   1569  C1'      -23.0020    2.3860   17.1900 C.3    77  DT77        0.2106
   1570  N1       -21.6600    1.8140   17.0670 N.ar   77  DT77       -0.2559
   1571  C2       -21.5200    0.4400   17.0260 C.ar   77  DT77        0.3545
   1572  O2       -22.4390   -0.3290   17.2460 O.2    77  DT77       -0.2443
   1573  N3       -20.2580   -0.0070   16.7180 N.ar   77  DT77       -0.1533
   1574  C4       -19.1470    0.7660   16.4520 C.ar   77  DT77        0.2804
   1575  O4       -18.0780    0.2190   16.1890 O.2    77  DT77       -0.2654
   1576  C5       -19.3730    2.1830   16.5150 C.ar   77  DT77        0.0534
   1577  C6       -20.5910    2.6440   16.8120 C.ar   77  DT77        0.0824
   1578  C7       -18.2250    3.1090   16.2420 C.3    77  DT77        0.0377
   1579  P        -23.0710    3.8040   21.6820 P.3    78  DG78        0.2141
   1580  OP1      -23.8010    4.7120   22.6100 O.3    78  DG78       -0.4373
   1581  OP2      -21.5840    3.8980   21.5730 O.2    78  DG78       -0.5172
   1582  O5'      -23.4490    2.2900   22.0250 O.3    78  DG78       -0.3114
   1583  C5'      -24.8050    1.8640   22.0470 C.3    78  DG78        0.1811
   1584  C4'      -24.8830    0.3550   22.0730 C.3    78  DG78        0.1746
   1585  O4'      -24.3040   -0.1800   20.8530 O.3    78  DG78       -0.3327
   1586  C3'      -24.1030   -0.3500   23.1740 C.3    78  DG78        0.1558
   1587  O3'      -24.8310   -0.3520   24.3980 O.3    78  DG78       -0.3138
   1588  C2'      -23.9590   -1.7550   22.5960 C.3    78  DG78        0.0865
   1589  C1'      -23.7220   -1.4440   21.1220 C.3    78  DG78        0.2094
   1590  N9       -22.3180   -1.3760   20.7870 N.ar   78  DG78       -0.2713
   1591  C8       -21.5110   -0.2640   20.7570 C.ar   78  DG78        0.1816
   1592  N7       -20.2510   -0.5470   20.5710 N.ar   78  DG78       -0.2173
   1593  C5       -20.2190   -1.9250   20.4700 C.ar   78  DG78        0.1748
   1594  C6       -19.1300   -2.8110   20.2660 C.ar   78  DG78        0.3023
   1595  O6       -17.9320   -2.5340   20.1290 O.2    78  DG78       -0.2633
   1596  N1       -19.5420   -4.1410   20.2280 N.ar   78  DG78       -0.1709
   1597  C2       -20.8420   -4.5640   20.3680 C.ar   78  DG78        0.2606
   1598  N2       -21.0430   -5.8870   20.3010 N.pl3  78  DG78       -0.0859
   1599  N3       -21.8630   -3.7530   20.5590 N.ar   78  DG78       -0.1918
   1600  C4       -21.4880   -2.4570   20.6000 C.ar   78  DG78        0.1722
   1601  P        -24.0850   -0.7840   25.8120 P.3    79  DA79        0.2141
   1602  OP1      -25.1160   -0.7740   26.8740 O.3    79  DA79       -0.4373
   1603  OP2      -22.7300   -0.2490   26.0730 O.2    79  DA79       -0.5172
   1604  O5'      -23.8260   -2.2920   25.3450 O.3    79  DA79       -0.3114
   1605  C5'      -24.9040   -3.2050   25.2230 C.3    79  DA79        0.1812
   1606  C4'      -24.3870   -4.6150   25.1160 C.3    79  DA79        0.1775
   1607  O4'      -23.6630   -4.7620   23.8670 O.3    79  DA79       -0.3326
   1608  C3'      -23.3720   -5.0220   26.1730 C.3    79  DA79        0.1859
   1609  O3'      -23.9490   -5.3960   27.4150 O.3    79  DA79       -0.2203
   1610  C2'      -22.6250   -6.1460   25.4700 C.3    79  DA79        0.0894
   1611  C1'      -22.5200   -5.5670   24.0600 C.3    79  DA79        0.2094
   1612  N9       -21.2960   -4.6900   23.9600 N.ar   79  DA79       -0.2736
   1613  C8       -21.1220   -3.3870   24.3460 C.ar   79  DA79        0.1811
   1614  N7       -19.8910   -2.9540   24.2050 N.ar   79  DA79       -0.2236
   1615  C5       -19.2110   -4.0470   23.6940 C.ar   79  DA79        0.1304
   1616  C6       -17.8680   -4.2380   23.3250 C.3    79  DA79        0.2314
   1617  N6       -16.9340   -3.2890   23.4180 N.3    79  DA79       -0.1020
   1618  N1       -17.5150   -5.4510   22.8500 N.pl3  79  DA79       -0.1586
   1619  C2       -18.4520   -6.4020   22.7560 C.cat  79  DA79        0.2862
   1620  N3       -19.7440   -6.3420   23.0700 N.pl3  79  DA79       -0.1503
   1621  C4       -20.0630   -5.1250   23.5390 C.ar   79  DA79        0.1564
   1622  P        -23.3370   -4.6420   29.0620 P.3    80  DA80        0.5411
   1623  OP1      -24.1110   -5.0520   30.2640 O.2    80  DA80       -0.2272
   1624  OP2      -22.2970   -3.5830   29.1820 O.2    80  DA80       -0.2272
   1625  O5'      -22.6480   -5.9240   28.4110 O.3    80  DA80       -0.2722
   1626  C5'      -21.8030   -6.7520   29.1940 C.3    80  DA80        0.1850
   1627  C4'      -21.6130   -8.1000   28.5400 C.3    80  DA80        0.1755
   1628  O4'      -20.6180   -7.9950   27.4820 O.3    80  DA80       -0.3510
   1629  C3'      -21.0330   -9.1230   29.5020 C.3    80  DA80        0.1839
   1630  O3'      -22.0540   -9.7340   30.2760 O.3    80  DA80       -0.2204
   1631  C2'      -20.2790  -10.0720   28.5820 C.3    80  DA80        0.0676
   1632  C1'      -19.7220   -9.0960   27.5450 C.3    80  DA80        0.1450
   1633  N9       -19.1000   -6.8250   26.7940 N.2    80  DA80       -0.0102
   1634  C8       -19.5780   -5.5460   26.9150 C.2    80  DA80        0.3354
   1635  N7       -18.6870   -4.6210   26.6430 N.2    80  DA80       -0.2028
   1636  C5       -17.5480   -5.3420   26.3230 C.3    80  DA80        0.3315
   1637  C6       -16.2540   -4.9450   25.9420 C.2    80  DA80        0.4301
   1638  N6       -15.8790   -3.6710   25.8130 N.pl3  80  DA80        0.2140
   1639  N1       -15.3480   -5.9160   25.6950 N.2    80  DA80        0.0200
   1640  C2       -15.7250   -7.1930   25.8230 C.2    80  DA80        0.4720
   1641  N3       -16.9100   -7.6890   26.1730 N.2    80  DA80        0.0177
   1642  C4       -17.7860   -6.7000   26.4130 C.2    80  DA80        0.3923
@<TRIPOS>BOND
     1   538   536    1
     2   542   541    1
     3   542   546    1
     4   540   541    1
     5   540   539    1
     6   541   543    1
     7   546   547    1
     8   546   545    1
     9   536   539    1
    10   536   537    1
    11   544   543    1
    12   544   558    1
    13   543   545    1
    14   537   524    1
    15   547   548   ar
    16   547   557   ar
    17   548   549   ar
    18   524   523    1
    19   559   558    2
    20   558   560    1
    21   558   561    1
    22   557   556   ar
    23   557   550   ar
    24   549   550   ar
    25   556   554   ar
    26   517   516    1
    27   550   551   ar
    28   523   525    1
    29   523   521    1
    30   525   526    1
    31   562   561    1
    32   562   563    1
    33   519   516    1
    34   519   520    1
    35   554   555    1
    36   554   553   ar
    37   516   518    1
    38   551   553   ar
    39   551   552    2
    40   521   520    1
    41   521   522    1
    42   518   505    1
    43   505   504    1
    44   563   564    1
    45   563   565    1
    46   526   522    1
    47   526   527    1
    48   564   568    1
    49   570   571   ar
    50   570   569   ar
    51   527   534   ar
    52   527   528   ar
    53   534   533   ar
    54   498   497    2
    55   529   528    2
    56   528   530   ar
    57   571   572   ar
    58   533   535    1
    59   533   531   ar
    60   565   566    1
    61   565   567    1
    62   504   506    1
    63   504   502    1
    64   530   531   ar
    65   569   568    1
    66   569   579   ar
    67   568   567    1
    68   531   532    2
    69   566   580    1
    70   499   497    1
    71   506   507    1
    72   497   500    1
    73   497   485    1
    74   500   501    1
    75   572   579   ar
    76   572   573   ar
    77   582   580    2
    78   580   581    1
    79   580   583    1
    80   478   477    2
    81   502   501    1
    82   502   503    1
    83   579   578   ar
    84   457   456    2
    85   574   573    2
    86   573   575   ar
    87   485   484    1
    88   507   503    1
    89   507   508    1
    90   578   576   ar
    91   583   584    1
    92   477   479    1
    93   477   480    1
    94   477   464    1
    95   514   515   ar
    96   514   512   ar
    97   515   508   ar
    98   458   456    1
    99   513   512    1
   100   512   511   ar
   101   508   509   ar
   102   456   459    1
   103   456   442    1
   104   511   509   ar
   105   509   510    2
   106   480   481    1
   107   575   576   ar
   108   584   585    1
   109   576   577    1
   110   586   585    1
   111   586   590    1
   112   484   482    1
   113   484   486    1
   114   464   463    1
   115   592   593   ar
   116   592   591   ar
   117   481   482    1
   118   593   594   ar
   119   459   460    1
   120   442   441    1
   121   585   587    1
   122   460   461    1
   123   482   483    1
   124   435   434    2
   125   590   591    1
   126   590   589    1
   127   591   600   ar
   128   486   487    1
   129   463   461    1
   130   463   465    1
   131   594   600   ar
   132   594   595   ar
   133   496   494    1
   134   596   595    1
   135   461   462    1
   136   441   439    1
   137   441   443    1
   138   438   439    1
   139   438   437    1
   140   600   599   ar
   141   495   494   ar
   142   495   488   ar
   143   595   597   ar
   144   494   492   ar
   145   587   589    1
   146   587   588    1
   147   483   487    1
   148   439   440    1
   149   437   434    1
   150   434   436    1
   151   434   423    1
   152   487   488    1
   153   488   489   ar
   154   492   493    2
   155   492   491   ar
   156   465   466    1
   157   443   444    1
   158   588   601    1
   159   599   598   ar
   160   489   491   ar
   161   489   490    2
   162   597   598   ar
   163   462   466    1
   164   620   618    1
   165   468   469   ar
   166   468   467   ar
   167   617   616    2
   168   423   422    1
   169   440   444    1
   170   466   467    1
   171   618   616   ar
   172   618   619   ar
   173   469   470   ar
   174   467   476   ar
   175   603   601    2
   176   616   615   ar
   177   444   445    1
   178   601   602    1
   179   601   604    1
   180   619   612   ar
   181   615   613   ar
   182   470   476   ar
   183   470   471   ar
   184   476   475   ar
   185   607   611    1
   186   607   606    1
   187   445   446   ar
   188   445   455   ar
   189   612   613   ar
   190   612   611    1
   191   446   447   ar
   192   604   605    1
   193   422   424    1
   194   422   420    1
   195   613   614    2
   196   416   415    2
   197   475   474   ar
   198   471   472    1
   199   471   473   ar
   200   611   610    1
   201   605   606    1
   202   637   636    1
   203   638   636   ar
   204   638   639   ar
   205   455   454   ar
   206   455   448   ar
   207   424   425    1
   208   447   448   ar
   209   636   635   ar
   210   454   452   ar
   211   639   640   ar
   212   606   608    1
   213   474   473   ar
   214   420   419    1
   215   420   421    1
   216   419   418    1
   217   417   415    1
   218   448   449   ar
   219   415   418    1
   220   415   401    1
   221   640   641   ar
   222   635   641   ar
   223   635   634   ar
   224   452   453    1
   225   452   451   ar
   226   641   632   ar
   227   610   608    1
   228   449   451   ar
   229   449   450    2
   230   634   633   ar
   231   608   609    1
   232   425   421    1
   233   425   426    1
   234   632   633   ar
   235   632   631    1
   236   655   654    2
   237   656   654   ar
   238   656   657   ar
   239   401   400    1
   240   658   657    2
   241   426   433   ar
   242   426   427   ar
   243   631   627    1
   244   631   630    1
   245   433   432   ar
   246   654   653   ar
   247   394   393    2
   248   657   659   ar
   249   627   626    1
   250   609   621    1
   251   428   427    2
   252   427   429   ar
   253   395   393    1
   254   432   430   ar
   255   675   674    2
   256   653   652    1
   257   653   660   ar
   258   652   648    1
   259   652   651    1
   260   659   660   ar
   261   659   661    1
   262   393   396    1
   263   393   381    1
   264   429   430   ar
   265   400   402    1
   266   400   398    1
   267   630   628    1
   268   430   431    1
   269   623   621    2
   270   674   676   ar
   271   674   673   ar
   272   676   677   ar
   273   396   397    1
   274   648   647    1
   275   621   624    1
   276   621   622    1
   277   626   628    1
   278   626   625    1
   279   624   625    1
   280   402   403    1
   281   651   649    1
   282   700   699   ar
   283   700   701   ar
   284   397   398    1
   285   678   677    2
   286   677   679   ar
   287   673   672    1
   288   673   680   ar
   289   672   668    1
   290   672   671    1
   291   398   399    1
   292   699   697   ar
   293   628   629    1
   294   701   702   ar
   295   668   667    1
   296   381   380    1
   297   680   679   ar
   298   679   681    1
   299   647   649    1
   300   647   646    1
   301   697   698    1
   302   697   696   ar
   303   702   696   ar
   304   702   693   ar
   305   649   650    1
   306   671   669    1
   307   403   399    1
   308   403   404    1
   309   696   695   ar
   310   645   646    1
   311   645   642    1
   312   667   666    1
   313   667   669    1
   314   380   378    1
   315   380   382    1
   316   374   373    2
   317   629   642    1
   318   692   693    1
   319   692   688    1
   320   692   691    1
   321   693   694   ar
   322   404   405   ar
   323   404   414   ar
   324   377   378    1
   325   377   376    1
   326   688   687    1
   327   405   406   ar
   328   414   413   ar
   329   414   407   ar
   330   413   411   ar
   331   375   373    1
   332   406   407   ar
   333   407   408   ar
   334   695   694   ar
   335   642   644    2
   336   642   643    1
   337   411   412    1
   338   411   410   ar
   339   650   662    1
   340   666   665    1
   341   378   379    1
   342   669   670    1
   343   716   715    2
   344   408   410   ar
   345   408   409    2
   346   373   376    1
   347   373   360    1
   348   382   383    1
   349   665   662    1
   350   691   689    1
   351   709   713    1
   352   709   708    1
   353   687   686    1
   354   687   689    1
   355   713   714    1
   356   713   712    1
   357   715   714   ar
   358   715   717   ar
   359   670   682    1
   360   714   721   ar
   361   662   664    2
   362   662   663    1
   363   686   685    1
   364   717   718   ar
   365   379   383    1
   366   360   359    1
   367   689   690    1
   368   708   707    1
   369   708   710    1
   370   685   682    1
   371   384   383    1
   372   384   391   ar
   373   384   385   ar
   374   391   390   ar
   375   712   710    1
   376   721   720   ar
   377   386   385    2
   378   707   706    1
   379   385   387   ar
   380   390   392    1
   381   390   388   ar
   382   718   720   ar
   383   718   719    2
   384   682   684    2
   385   682   683    1
   386   736   735    2
   387   690   706    1
   388   720   722    1
   389   387   388   ar
   390   353   352    2
   391   388   389    2
   392   359   361    1
   393   359   357    1
   394   733   729    1
   395   733   734    1
   396   733   732    1
   397   710   711    1
   398   729   728    1
   399   735   737   ar
   400   735   734   ar
   401   737   738   ar
   402   734   741   ar
   403   361   362    1
   404   711   723    1
   405   738   739    2
   406   738   740   ar
   407   355   352    1
   408   355   356    1
   409   352   354    1
   410   352   338    1
   411   741   740   ar
   412   728   727    1
   413   728   730    1
   414   732   730    1
   415   740   742    1
   416   703   705    1
   417   703   704    2
   418   356   357    1
   419   357   358    1
   420   727   726    1
   421   726   723    1
   422   362   363    1
   423   362   358    1
   424   730   731    1
   425   723   724    2
   426   723   725    1
   427   363   364   ar
   428   363   372   ar
   429   364   365   ar
   430   371   372   ar
   431   371   370   ar
   432   372   366   ar
   433   365   366   ar
   434   370   369   ar
   435   366   367   ar
   436   338   337    1
   437   369   367   ar
   438   756   755    2
   439   367   368    1
   440   731   743    1
   441   755   757   ar
   442   755   754   ar
   443   749   753    1
   444   749   748    1
   445   753   754    1
   446   753   752    1
   447   757   758   ar
   448   754   761   ar
   449   337   339    1
   450   337   335    1
   451   758   759    2
   452   758   760   ar
   453   761   760   ar
   454   748   747    1
   455   748   750    1
   456   339   340    1
   457   760   762    1
   458   743   745    2
   459   743   746    1
   460   743   744    1
   461   752   750    1
   462   747   746    1
   463   333   334    1
   464   333   330    1
   465   769   773    1
   466   769   768    1
   467   335   334    1
   468   335   336    1
   469   332   330    2
   470   750   751    1
   471   773   774    1
   472   773   772    1
   473   349   348    1
   474   350   348   ar
   475   350   351   ar
   476   348   347   ar
   477   331   330    1
   478   768   767    1
   479   768   770    1
   480   340   341    1
   481   340   336    1
   482   330   317    1
   483   776   775    2
   484   351   341   ar
   485   351   344   ar
   486   341   342   ar
   487   347   345   ar
   488   774   775   ar
   489   774   781   ar
   490   767   766    1
   491   751   763    1
   492   344   345   ar
   493   344   343   ar
   494   775   777   ar
   495   345   346    2
   496   342   343   ar
   497   781   780   ar
   498   772   770    1
   499   777   778   ar
   500   780   778   ar
   501   780   782    1
   502   766   763    1
   503   770   771    1
   504   778   779    2
   505   317   316    1
   506   763   764    2
   507   763   765    1
   508   771   783    1
   509   789   793    1
   510   789   788    1
   511   316   318    1
   512   316   314    1
   513   793   794    1
   514   793   792    1
   515   787   788    1
   516   787   786    1
   517   313   314    1
   518   313   312    1
   519   318   319    1
   520   794   801   ar
   521   794   795   ar
   522   801   800   ar
   523   788   790    1
   524   786   783    1
   525   310   309    2
   526   802   800    1
   527   800   798   ar
   528   795   796    2
   529   795   797   ar
   530   783   785    2
   531   783   784    1
   532   314   315    1
   533   797   798   ar
   534   798   799    2
   535   311   309    1
   536   327   326   ar
   537   327   328   ar
   538   326   324   ar
   539   328   329   ar
   540   324   325    1
   541   324   323   ar
   542   329   323   ar
   543   329   320   ar
   544   309   312    1
   545   309   298    1
   546   323   322   ar
   547   320   321   ar
   548   320   319    1
   549   792   790    1
   550   322   321   ar
   551   319   315    1
   552   790   791    1
   553   791   803    1
   554   809   813    1
   555   809   808    1
   556   298   297    1
   557   813   814    1
   558   813   812    1
   559   807   808    1
   560   807   806    1
   561   808   810    1
   562   815   814   ar
   563   815   816   ar
   564   814   824   ar
   565   816   817   ar
   566   297   299    1
   567   297   295    1
   568   824   817   ar
   569   824   823   ar
   570   817   818   ar
   571   823   821   ar
   572   806   803    1
   573   803   804    2
   574   803   805    1
   575   821   820   ar
   576   821   822    1
   577   818   820   ar
   578   818   819    2
   579   299   300    1
   580   812   810    1
   581   306   305    1
   582   810   811    1
   583   304   305   ar
   584   304   302   ar
   585   305   307   ar
   586   303   302    2
   587   302   301   ar
   588   293   294    1
   589   293   290    1
   590   307   308   ar
   591   295   294    1
   592   295   296    1
   593   291   290    2
   594   301   308   ar
   595   301   300    1
   596   300   296    1
   597   292   290    1
   598   811   825    1
   599   290   278    1
   600   271   270    2
   601   831   835    1
   602   831   830    1
   603   837   838   ar
   604   837   836   ar
   605   838   839   ar
   606   272   270    1
   607   825   827    2
   608   825   826    1
   609   825   828    1
   610   278   277    1
   611   835   836    1
   612   835   834    1
   613   836   845   ar
   614   286   285    2
   615   839   845   ar
   616   839   840   ar
   617   841   840    1
   618   845   844   ar
   619   270   273    1
   620   270   256    1
   621   840   842   ar
   622   289   287    1
   623   285   287   ar
   624   285   284   ar
   625   249   248    2
   626   277   279    1
   627   277   275    1
   628   829   830    1
   629   829   828    1
   630   844   843   ar
   631   830   832    1
   632   842   843   ar
   633   287   288   ar
   634   279   280    1
   635   284   282   ar
   636   273   274    1
   637   288   281   ar
   638   250   248    1
   639   282   281   ar
   640   282   283    2
   641   834   832    1
   642   256   255    1
   643   281   280    1
   644   248   251    1
   645   248   234    1
   646   832   833    1
   647   280   276    1
   648   274   275    1
   649   275   276    1
   650   251   252    1
   651   252   253    1
   652   255   253    1
   653   255   257    1
   654   234   233    1
   655   253   254    1
   656   833   846    1
   657   227   226    2
   658   257   258    1
   659   852   856    1
   660   852   851    1
   661   260   261   ar
   662   260   259   ar
   663   859   858    2
   664   261   262   ar
   665   233   231    1
   666   233   235    1
   667   858   857   ar
   668   858   860   ar
   669   856   857    1
   670   856   855    1
   671   857   864   ar
   672   860   861   ar
   673   254   258    1
   674   228   226    1
   675   864   863   ar
   676   846   847    2
   677   846   848    1
   678   846   849    1
   679   259   258    1
   680   259   269   ar
   681   861   863   ar
   682   861   862    2
   683   230   231    1
   684   230   229    1
   685   863   865    1
   686   226   229    1
   687   226   213    1
   688   850   851    1
   689   850   849    1
   690   262   269   ar
   691   262   263    1
   692   851   853    1
   693   264   263    2
   694   269   268    1
   695   231   232    1
   696   263   265   am
   697   235   236    1
   698   268   266    1
   699   213   212    1
   700   855   853    1
   701   265   266    1
   702   265   883    1
   703   266   267    1
   704   266   884    1
   705   853   854    1
   706   206   205    2
   707   232   236    1
   708   267   885    1
   709   236   237    1
   710   238   237   ar
   711   238   239   ar
   712   212   210    1
   713   212   214    1
   714   237   247   ar
   715   882   881    1
   716   854   866    1
   717   209   208    1
   718   209   210    1
   719   239   240   ar
   720   883   881    1
   721   883   884    1
   722   247   240   ar
   723   247   246   ar
   724   881   880    2
   725   240   241   ar
   726   246   244   ar
   727   208   205    1
   728   884   885    1
   729   210   211    1
   730   205   207    1
   731   205   191    1
   732   880   879    1
   733   880   886    1
   734   879   878    2
   735   885   886    1
   736   241   242    2
   737   241   243   ar
   738   886   877    1
   739   244   243   ar
   740   244   245    1
   741   214   215    1
   742   878   877    1
   743   877   876    1
   744   872   876    1
   745   872   871    1
   746   868   866    2
   747   876   875    1
   748   191   190    1
   749   866   869    1
   750   866   867    1
   751   211   215    1
   752   869   870    1
   753   900   899    2
   754   215   216    1
   755   870   871    1
   756   871   873    1
   757   901   899   ar
   758   901   902   ar
   759   899   898   ar
   760   216   217   ar
   761   216   225   ar
   762   217   218   ar
   763   903   902    1
   764   190   188    1
   765   190   192    1
   766   875   873    1
   767   902   904   ar
   768   218   219   ar
   769   225   224   ar
   770   225   219   ar
   771   898   897    1
   772   898   905   ar
   773  1480  1478    2
   774   187   188    1
   775   187   186    1
   776   897   893    1
   777   897   896    1
   778   184   183    2
   779   224   223   ar
   780   873   874    1
   781  1494  1493    1
   782   219   220   ar
   783   893   892    1
   784   188   189    1
   785   904   905   ar
   786   919   918    2
   787   192   193    1
   788   186   183    1
   789  1491  1492   ar
   790  1491  1490   ar
   791   223   222   ar
   792  1493  1492   ar
   793  1493  1495   ar
   794   220   222   ar
   795   220   221    1
   796   918   920   ar
   797   918   917   ar
   798   183   185    1
   799   183   170    1
   800   920   921   ar
   801  1479  1478    1
   802  1492  1498   ar
   803   896   894    1
   804  1490  1489   ar
   805  1478  1481    1
   806  1478  1466    1
   807   916   917    1
   808   916   912    1
   809   916   915    1
   810  1484  1483    1
   811  1484  1488    1
   812  1495  1496   ar
   813   917   924   ar
   814   912   911    1
   815   874   887    1
   816   892   891    1
   817   892   894    1
   818   921   922    1
   819   921   923   ar
   820  1482  1481    1
   821  1482  1483    1
   822  1498  1489   ar
   823  1498  1497   ar
   824   189   193    1
   825  1489  1488    1
   826   193   194    1
   827   924   923   ar
   828  1496  1497   ar
   829   170   169    1
   830  1483  1485    1
   831  1459  1458    2
   832   891   890    1
   833   894   895    1
   834  1488  1487    1
   835   915   913    1
   836  1466  1465    1
   837   890   887    1
   838  1460  1458    1
   839   889   887    2
   840   194   195   ar
   841   194   204   ar
   842   911   910    1
   843   911   913    1
   844   887   888    1
   845   195   196   ar
   846  1462  1461    1
   847  1462  1463    1
   848  1458  1461    1
   849  1458  1447    1
   850   203   204   ar
   851   203   201   ar
   852   204   197   ar
   853  1465  1463    1
   854  1465  1467    1
   855   895   906    1
   856   938   937    2
   857   910   909    1
   858   169   171    1
   859   169   167    1
   860   913   914    1
   861   939   937   ar
   862   939   940   ar
   863   196   197   ar
   864   937   936   ar
   865  1485  1487    1
   866  1485  1486    1
   867   935   931    1
   868   935   936    1
   869   935   934    1
   870   909   906    1
   871   197   198   ar
   872   201   202    1
   873   201   200   ar
   874   931   930    1
   875   171   172    1
   876   941   940    1
   877   940   942   ar
   878  1463  1464    1
   879   936   943   ar
   880  1486  1499    1
   881   942   943   ar
   882   914   925    1
   883   200   198   ar
   884   198   199    2
   885   906   908    2
   886   906   907    1
   887  1467  1468    1
   888   167   166    1
   889   167   168    1
   890  1447  1446    1
   891  1477  1475    1
   892   166   165    1
   893  1501  1499    2
   894   934   932    1
   895  1464  1468    1
   896   930   929    1
   897   930   932    1
   898  1476  1475   ar
   899  1476  1469   ar
   900  1475  1473   ar
   901   957   956    2
   902  1440  1439    2
   903  1469  1468    1
   904  1469  1470   ar
   905  1473  1474    2
   906  1473  1472   ar
   907   165   162    1
   908  1499  1500    1
   909  1499  1502    1
   910   172   168    1
   911   172   173    1
   912  1470  1472   ar
   913  1470  1471    2
   914   956   958   ar
   915   956   955   ar
   916   929   928    1
   917   958   959   ar
   918   928   925    1
   919   925   927    2
   920   925   926    1
   921   163   162    2
   922   181   180   ar
   923   181   182   ar
   924  1446  1448    1
   925  1446  1444    1
   926   954   955    1
   927   954   950    1
   928   954   953    1
   929   932   933    1
   930   173   182   ar
   931   173   174   ar
   932   955   962   ar
   933   976   975    2
   934   180   179   ar
   935   182   176   ar
   936   959   960    1
   937   959   961   ar
   938   950   949    1
   939  1441  1439    1
   940  1439  1442    1
   941  1439  1425    1
   942   174   175   ar
   943  1443  1442    1
   944  1443  1444    1
   945   162   151    1
   946   162   164    1
   947   962   961   ar
   948   973   969    1
   949   973   972    1
   950   973   974    1
   951   179   177   ar
   952  1448  1449    1
   953   176   175   ar
   954   176   177   ar
   955   933   944    1
   956   975   974   ar
   957   975   977   ar
   958  1444  1445    1
   959   953   951    1
   960   177   178    1
   961   969   968    1
   962  1502  1503    1
   963   972   970    1
   964   974   981   ar
   965   151   150    1
   966   949   948    1
   967   949   951    1
   968   977   978   ar
   969  1503  1504    1
   970  1425  1424    1
   971   968   970    1
   972   968   967    1
   973  1457  1456    1
   974  1457  1450    1
   975  1456  1454    2
   976  1449  1445    1
   977  1449  1450    1
   978   989   988    1
   979   989   993    1
   980   948   947    1
   981   152   150    1
   982   152   153    1
   983  1450  1451   am
   984   951   952    1
   985   981   980   ar
   986   947   944    1
   987   988   987    1
   988   988   990    1
   989  1516  1517    2
   990  1516  1514    1
   991   970   971    1
   992   993   992    1
   993   993   994    1
   994  1454  1455    1
   995  1454  1453    1
   996   978   980   ar
   997   978   979    2
   998  1517  1510    1
   999   944   945    2
  1000   944   946    1
  1001   996   995    2
  1002   156   155    2
  1003   150   148    1
  1004  1451  1453   am
  1005  1451  1452    2
  1006  1505  1504    1
  1007  1505  1509    1
  1008  1453  1515    1
  1009   987   986    1
  1010   971   983    1
  1011   980   982    1
  1012   992   990    1
  1013  1504  1506    1
  1014  1424  1426    1
  1015  1424  1422    1
  1016   952   963    1
  1017  1515  1514    1
  1018  1418  1417    2
  1019  1009  1008    1
  1020  1009  1013    1
  1021   967   966    1
  1022  1514  1513    2
  1023  1007  1008    1
  1024  1007  1006    1
  1025  1008  1010    1
  1026   966   963    1
  1027   991   990    1
  1028   991  1003    1
  1029   994   995   ar
  1030   994  1001   ar
  1031   995   997   ar
  1032  1510  1509    1
  1033  1510  1511    1
  1034   155   157   ar
  1035   155   154   ar
  1036  1509  1508    1
  1037   153   154    1
  1038   153   149    1
  1039  1421  1420    1
  1040  1421  1422    1
  1041   148   149    1
  1042   148   147    1
  1043  1419  1417    1
  1044   157   158   ar
  1045  1013  1012    1
  1046  1013  1014    1
  1047   986   983    1
  1048   154   161   ar
  1049  1426  1427    1
  1050  1420  1417    1
  1051  1513  1511    2
  1052  1417  1405    1
  1053  1422  1423    1
  1054  1508  1506    1
  1055  1511  1512    1
  1056  1506  1507    1
  1057  1004  1003    2
  1058   983   984    2
  1059   983   985    1
  1060  1001  1000   ar
  1061   997   998   ar
  1062   963   965    2
  1063   963   964    1
  1064  1006  1003    1
  1065  1012  1010    1
  1066  1003  1005    1
  1067  1010  1011    1
  1068   147   146    1
  1069  1011  1023    1
  1070   158   159    1
  1071   158   160   ar
  1072   161   160   ar
  1073  1512  1528    1
  1074  1014  1015   ar
  1075  1014  1021   ar
  1076  1016  1015    2
  1077  1000   998   ar
  1078  1000  1002    1
  1079   998   999    2
  1080   146   143    1
  1081  1427  1423    1
  1082  1427  1428    1
  1083  1428  1429   ar
  1084  1428  1438   ar
  1085  1429  1430   ar
  1086  1015  1017   ar
  1087  1021  1020   ar
  1088  1027  1028    1
  1089  1027  1026    1
  1090  1405  1404    1
  1091  1430  1431   ar
  1092  1438  1437   ar
  1093  1438  1431   ar
  1094  1024  1023    2
  1095  1437  1435   ar
  1096  1431  1432   ar
  1097  1029  1028    1
  1098  1029  1033    1
  1099  1524  1528    1
  1100  1524  1523    1
  1101  1528  1529    1
  1102  1528  1527    1
  1103  1435  1436    1
  1104  1435  1434   ar
  1105  1028  1030    1
  1106  1531  1530    2
  1107  1432  1434   ar
  1108  1432  1433    2
  1109  1023  1026    1
  1110  1023  1025    1
  1111  1530  1532   ar
  1112  1530  1529   ar
  1113  1520  1518    2
  1114  1532  1533   ar
  1115  1529  1536   ar
  1116  1017  1018   ar
  1117  1020  1022    1
  1118  1020  1018   ar
  1119  1533  1534    1
  1120  1533  1535   ar
  1121  1536  1535   ar
  1122  1521  1518    1
  1123  1521  1522    1
  1124  1404  1406    1
  1125  1404  1402    1
  1126  1518  1519    2
  1127   143   144    2
  1128   143   130    1
  1129  1033  1032    1
  1130  1033  1034    1
  1131  1018  1019    2
  1132  1523  1522    1
  1133  1523  1525    1
  1134   140   139   ar
  1135   140   141   ar
  1136  1527  1525    1
  1137  1406  1407    1
  1138   145   130    1
  1139   145   129    1
  1140  1030  1031    1
  1141  1030  1032    1
  1142   139   137   ar
  1143   141   142   ar
  1144  1031  1045    1
  1145   131   129    1
  1146   131   132    1
  1147  1402  1401    1
  1148  1402  1403    1
  1149  1034  1035   ar
  1150  1034  1044   ar
  1151  1525  1526    1
  1152  1035  1036   ar
  1153  1556  1555    1
  1154  1401  1400    1
  1155  1398  1397    2
  1156   129   127    1
  1157  1547  1543    1
  1158  1547  1548    1
  1159  1547  1546    1
  1160  1557  1555   ar
  1161  1557  1558   ar
  1162   137   138    1
  1163   137   136   ar
  1164  1555  1554   ar
  1165  1400  1397    1
  1166   142   136   ar
  1167   142   133   ar
  1168  1410  1409    2
  1169  1543  1542    1
  1170  1407  1408    1
  1171  1407  1403    1
  1172  1558  1548   ar
  1173  1558  1551   ar
  1174  1554  1552   ar
  1175  1548  1549   ar
  1176  1046  1045    2
  1177  1409  1408   ar
  1178  1409  1411   ar
  1179   132   133    1
  1180   132   128    1
  1181  1526  1537    1
  1182  1044  1043   ar
  1183  1044  1037   ar
  1184  1408  1415   ar
  1185   136   135   ar
  1186  1049  1048    1
  1187  1049  1050    1
  1188  1036  1037   ar
  1189  1045  1048    1
  1190  1045  1047    1
  1191  1551  1552   ar
  1192  1551  1550   ar
  1193  1552  1553    2
  1194  1411  1412   ar
  1195  1043  1041   ar
  1196  1397  1399    1
  1197  1397  1383    1
  1198  1549  1550   ar
  1199   133   134   ar
  1200  1415  1414   ar
  1201  1412  1414   ar
  1202  1412  1413    2
  1203  1037  1038   ar
  1204  1546  1544    1
  1205  1414  1416    1
  1206   127   128    1
  1207   127   126    1
  1208  1540  1537    1
  1209  1540  1541    1
  1210  1542  1541    1
  1211  1542  1544    1
  1212  1050  1051    1
  1213  1050  1052    1
  1214   135   134   ar
  1215  1041  1042    1
  1216  1041  1040   ar
  1217  1051  1055    1
  1218  1537  1538    2
  1219  1537  1539    1
  1220  1038  1040   ar
  1221  1038  1039    2
  1222  1544  1545    1
  1223  1383  1382    1
  1224  1376  1375    2
  1225  1377  1375    1
  1226   126   125    1
  1227  1052  1053    1
  1228  1052  1054    1
  1229   125   122    1
  1230  1055  1054    1
  1231  1055  1056    1
  1232  1053  1067    1
  1233  1375  1378    1
  1234  1375  1364    1
  1235  1382  1384    1
  1236  1382  1380    1
  1237  1545  1559    1
  1238  1068  1067    2
  1239  1357  1356    2
  1240  1575  1574    2
  1241  1578  1576    1
  1242  1574  1576   ar
  1243  1574  1573   ar
  1244  1358  1356    1
  1245  1576  1577   ar
  1246  1057  1056   ar
  1247  1057  1058   ar
  1248   123   122    2
  1249  1384  1385    1
  1250  1573  1571   ar
  1251  1056  1066   ar
  1252  1577  1570   ar
  1253  1391  1390    2
  1254  1565  1569    1
  1255  1565  1564    1
  1256   122   124    1
  1257   122   111    1
  1258  1067  1069    1
  1259  1067  1070    1
  1260  1571  1570   ar
  1261  1571  1572    2
  1262  1356  1359    1
  1263  1356  1342    1
  1264  1570  1569    1
  1265  1378  1379    1
  1266  1388  1387   ar
  1267  1388  1389   ar
  1268  1569  1568    1
  1269  1390  1389   ar
  1270  1390  1392   ar
  1271  1379  1380    1
  1272  1364  1363    1
  1273  1387  1386   ar
  1274  1389  1396   ar
  1275  1380  1381    1
  1276   116   115    2
  1277   117   115   ar
  1278   117   118   ar
  1279  1392  1393   ar
  1280  1561  1559    2
  1281  1058  1059   ar
  1282  1559  1562    1
  1283  1559  1560    1
  1284  1359  1360    1
  1285   119   118    1
  1286  1386  1396   ar
  1287  1386  1385    1
  1288  1396  1395   ar
  1289  1066  1065   ar
  1290  1066  1059   ar
  1291   115   114   ar
  1292  1385  1381    1
  1293   111   110    1
  1294  1562  1563    1
  1295  1393  1395   ar
  1296  1393  1394    1
  1297  1071  1070    1
  1298  1071  1072    1
  1299  1563  1564    1
  1300  1363  1361    1
  1301  1363  1365    1
  1302  1564  1566    1
  1303   112   110    1
  1304   112   113    1
  1305   118   120   ar
  1306  1342  1341    1
  1307  1360  1361    1
  1308  1065  1063   ar
  1309  1059  1060   ar
  1310  1335  1334    2
  1311   110   108    1
  1312  1568  1566    1
  1313   114   113    1
  1314   114   121   ar
  1315  1361  1362    1
  1316   120   121   ar
  1317  1365  1366    1
  1318  1373  1374   ar
  1319  1373  1371   ar
  1320   113   109    1
  1321  1566  1567    1
  1322  1372  1371    1
  1323  1341  1339    1
  1324  1341  1343    1
  1325  1374  1367   ar
  1326  1336  1334    1
  1327  1072  1073    1
  1328  1072  1074    1
  1329  1371  1370   ar
  1330  1334  1337    1
  1331  1334  1322    1
  1332     1     2    1
  1333  1063  1064    1
  1334  1063  1062   ar
  1335  1073  1077    1
  1336    20    19    2
  1337    21    19    1
  1338  1060  1062   ar
  1339  1060  1061    2
  1340  1337  1338    1
  1341  1338  1339    1
  1342  1367  1366    1
  1343  1367  1368   ar
  1344     2     3    1
  1345  1370  1368   ar
  1346  1362  1366    1
  1347   108   109    1
  1348   108   107    1
  1349  1595  1594    2
  1350    97    96    2
  1351  1596  1594   ar
  1352  1596  1597   ar
  1353  1594  1593   ar
  1354  1339  1340    1
  1355  1343  1344    1
  1356  1598  1597    1
  1357  1368  1369    2
  1358  1597  1599   ar
  1359  1567  1579    1
  1360  1593  1592   ar
  1361  1593  1600   ar
  1362  1079  1080   ar
  1363  1079  1078   ar
  1364  1599  1600   ar
  1365  1592  1591   ar
  1366  1600  1590   ar
  1367  1074  1075    1
  1368  1074  1076    1
  1369    98    96   ar
  1370    98    99   ar
  1371   106   107    1
  1372   106   103    1
  1373  1591  1590   ar
  1374  1590  1589    1
  1375  1315  1314    2
  1376    96    95   ar
  1377  1585  1589    1
  1378  1585  1584    1
  1379  1075  1089    1
  1380  1077  1078    1
  1381  1077  1076    1
  1382  1080  1081   ar
  1383   100    99    1
  1384  1589  1588    1
  1385  1322  1321    1
  1386   105   103    2
  1387  1078  1088   ar
  1388  1091  1089    2
  1389    99   101   ar
  1390     3     5    1
  1391     3     4    1
  1392  1346  1347   ar
  1393  1346  1345   ar
  1394  1340  1344    1
  1395     6    22    1
  1396     6     5    1
  1397  1344  1345    1
  1398  1581  1579    2
  1399  1347  1348   ar
  1400  1345  1355   ar
  1401  1579  1582    1
  1402  1579  1580    1
  1403    22    23    1
  1404    95    94   ar
  1405    95   102   ar
  1406   103   104    1
  1407   103    89    1
  1408  1316  1314    1
  1409  1348  1355   ar
  1410  1348  1349   ar
  1411  1355  1354   ar
  1412  1089  1090    1
  1413  1089  1092    1
  1414  1314  1317    1
  1415  1314  1301    1
  1416  1582  1583    1
  1417     5     7    1
  1418  1583  1584    1
  1419    43    41    2
  1420  1584  1586    1
  1421  1349  1350    2
  1422  1349  1351   ar
  1423  1295  1293    2
  1424  1321  1319    1
  1425  1321  1323    1
  1426    94    93   ar
  1427  1354  1352   ar
  1428  1081  1088   ar
  1429  1081  1082   ar
  1430   101   102   ar
  1431  1317  1318    1
  1432  1088  1087   ar
  1433     4     8    1
  1434   102    92   ar
  1435  1351  1352   ar
  1436  1351  1618    1
  1437  1352  1353    2
  1438    23    24    1
  1439  1318  1319    1
  1440  1286  1285    2
  1441  1588  1586    1
  1442  1353  1619    2
  1443  1619  1618    1
  1444  1619  1620    1
  1445  1618  1616    1
  1446    42    41    1
  1447    76    75    1
  1448    93    92   ar
  1449  1319  1320    1
  1450  1620  1621    1
  1451  1586  1587    1
  1452    41    27    1
  1453    41    44    1
  1454  1323  1324    1
  1455    92    91    1
  1456  1082  1083    2
  1457  1082  1084   ar
  1458  1287  1285   ar
  1459  1287  1288   ar
  1460    62    60    2
  1461  1301  1300    1
  1462    89    88    1
  1463  1616  1617    1
  1464  1616  1615    1
  1465  1092  1093    1
  1466  1087  1085   ar
  1467  1285  1284   ar
  1468    90    88    1
  1469    90    91    1
  1470    88    86    1
  1471    10    11    2
  1472    10     9    1
  1473  1293  1294    1
  1474  1293  1296    1
  1475  1293  1281    1
  1476    27    26    1
  1477     7     8    1
  1478  1621  1615   ar
  1479  1621  1612   ar
  1480     8     9    1
  1481  1615  1614   ar
  1482    57    56    1
  1483    61    60    1
  1484    24    26    1
  1485    24    25    1
  1486  1289  1288    2
  1487    26    28    1
  1488  1607  1611    1
  1489  1607  1606    1
  1490    83    81    2
  1491  1282  1283    1
  1492  1282  1280    1
  1493  1093  1094    1
  1494    73    74   ar
  1495    73    72   ar
  1496    75    74   ar
  1497    75    77   ar
  1498  1612  1611    1
  1499  1612  1613   ar
  1500    31    32   ar
  1501    31    30   ar
  1502  1611  1610    1
  1503    11    12    1
  1504    91    87    1
  1505  1288  1290   ar
  1506     9    18    1
  1507    32    33   ar
  1508  1333  1331    1
  1509  1614  1613   ar
  1510  1084  1085   ar
  1511    60    63    1
  1512    60    49    1
  1513    58    56   ar
  1514    58    59   ar
  1515  1300  1302    1
  1516  1300  1298    1
  1517  1085  1086    1
  1518  1332  1331   ar
  1519  1332  1325   ar
  1520    44    45    1
  1521  1320  1324    1
  1522  1331  1329   ar
  1523    74    80   ar
  1524  1587  1601    1
  1525  1324  1325    1
  1526    84    81    1
  1527    84    85    1
  1528  1296  1297    1
  1529  1325  1326   ar
  1530  1102  1101   ar
  1531  1102  1103   ar
  1532  1284  1283    1
  1533  1284  1291   ar
  1534    56    55   ar
  1535  1101  1100   ar
  1536    77    78   ar
  1537    25    29    1
  1538  1281  1280    1
  1539  1329  1330    2
  1540  1329  1328   ar
  1541  1283  1279    1
  1542    72    71   ar
  1543  1326  1328   ar
  1544  1326  1327    2
  1545    63    64    1
  1546  1095  1094    1
  1547  1095  1099    1
  1548    86    87    1
  1549    86    85    1
  1550    81    82    1
  1551    81    68    1
  1552  1280  1278    1
  1553    59    52   ar
  1554  1606  1605    1
  1555  1606  1608    1
  1556  1094  1096    1
  1557  1302  1303    1
  1558    30    29    1
  1559    30    40   ar
  1560  1298  1297    1
  1561  1298  1299    1
  1562  1605  1604    1
  1563    12    18    1
  1564    12    13    2
  1565  1290  1291   ar
  1566  1290  1292    1
  1567    28    29    1
  1568    18    17    1
  1569  1604  1601    1
  1570    33    34   ar
  1571    33    40   ar
  1572    45    46    1
  1573    80    71   ar
  1574    80    79   ar
  1575  1610  1608    1
  1576    49    48    1
  1577  1105  1104    2
  1578    55    53   ar
  1579    78    79   ar
  1580    35    34    2
  1581  1103  1104   ar
  1582  1103  1110   ar
  1583    71    70    1
  1584  1100  1099    1
  1585  1100  1110   ar
  1586  1639  1640    1
  1587  1639  1637    2
  1588    67    68    1
  1589    67    69    1
  1590    67    65    1
  1591    48    46    1
  1592    48    50    1
  1593  1601  1603    2
  1594  1601  1602    1
  1595  1638  1637    1
  1596  1640  1641    2
  1597  1270  1269    1
  1598  1637  1636    1
  1599  1099  1098    1
  1600    34    36   ar
  1601    64    65    1
  1602    40    39   ar
  1603  1279  1278    1
  1604  1104  1106   ar
  1605    52    53   ar
  1606    52    51    1
  1607  1641  1642    1
  1608  1608  1609    1
  1609  1278  1277    1
  1610  1096  1097    1
  1611  1096  1098    1
  1612    17    16    2
  1613    69    70    1
  1614  1636  1642    1
  1615  1636  1635    1
  1616    13    14    1
  1617    13    15    1
  1618  1110  1109   ar
  1619    46    47    1
  1620  1642  1633    2
  1621    53    54    2
  1622  1299  1303    1
  1623  1303  1304    1
  1624    65    66    1
  1625  1635  1634    2
  1626    70    66    1
  1627  1268  1269   ar
  1628  1268  1266   ar
  1629    50    51    1
  1630  1633  1634    1
  1631  1269  1271   ar
  1632    47    51    1
  1633  1097  1111    1
  1634  1113  1111    2
  1635  1305  1304   ar
  1636  1305  1306   ar
  1637    16    15    1
  1638    39    37   ar
  1639  1304  1313   ar
  1640  1106  1107   ar
  1641  1276  1277    1
  1642  1276  1273    1
  1643    36    37   ar
  1644    15  1234    1
  1645  1251  1250    1
  1646  1306  1307   ar
  1647  1628  1632    1
  1648  1628  1627    1
  1649  1632  1631    1
  1650  1109  1107   ar
  1651  1267  1266    2
  1652  1266  1265   ar
  1653  1313  1307   ar
  1654  1313  1312   ar
  1655  1111  1112    1
  1656  1111  1114    1
  1657  1307  1308   ar
  1658  1271  1272   ar
  1659    37    38    1
  1660  1107  1108    1
  1661  1127  1126    1
  1662  1312  1311   ar
  1663  1275  1273    2
  1664  1308  1309    1
  1665  1308  1310   ar
  1666  1124  1123   ar
  1667  1124  1125   ar
  1668  1625  1622    1
  1669  1625  1626    1
  1670  1231  1230    2
  1671  1234  1232    1
  1672  1311  1310   ar
  1673  1627  1626    1
  1674  1627  1629    1
  1675  1273  1274    1
  1676  1273  1262    1
  1677  1250  1249   ar
  1678  1250  1252   ar
  1679  1631  1629    1
  1680  1265  1272   ar
  1681  1265  1264    1
  1682  1148  1147    2
  1683  1123  1122   ar
  1684  1126  1125   ar
  1685  1126  1128   ar
  1686  1622  1624    2
  1687  1622  1623    2
  1688  1249  1247   ar
  1689  1125  1131   ar
  1690  1263  1261    1
  1691  1263  1264    1
  1692  1114  1115    1
  1693  1252  1253   ar
  1694  1230  1232   ar
  1695  1230  1229   ar
  1696  1629  1630    1
  1697  1232  1233   ar
  1698  1261  1262    1
  1699  1261  1259    1
  1700  1264  1260    1
  1701  1147  1149   ar
  1702  1147  1146   ar
  1703  1217  1215    2
  1704  1122  1131   ar
  1705  1122  1121    1
  1706  1128  1129   ar
  1707  1115  1116    1
  1708  1149  1150   ar
  1709  1131  1130   ar
  1710  1247  1248    2
  1711  1247  1246   ar
  1712  1237  1235    2
  1713  1256  1254    2
  1714  1229  1227   ar
  1715  1253  1246   ar
  1716  1117  1121    1
  1717  1117  1116    1
  1718  1233  1226   ar
  1719  1260  1259    1
  1720  1257  1254    1
  1721  1257  1258    1
  1722  1146  1145   ar
  1723  1146  1153   ar
  1724  1259  1258    1
  1725  1145  1144   ar
  1726  1246  1245    1
  1727  1129  1130   ar
  1728  1121  1120    1
  1729  1215  1216    1
  1730  1215  1218    1
  1731  1215  1202    1
  1732  1195  1194    2
  1733  1116  1118    1
  1734  1218  1219    1
  1735  1150  1151    1
  1736  1150  1152   ar
  1737  1254  1255    1
  1738  1254  1243    1
  1739  1227  1226   ar
  1740  1227  1228    2
  1741  1226  1225    1
  1742  1235  1236    1
  1743  1235  1238    1
  1744  1235  1223    1
  1745  1118  1120    1
  1746  1118  1119    1
  1747  1134  1132    2
  1748  1196  1194    1
  1749  1244  1242    1
  1750  1244  1245    1
  1751  1194  1197    1
  1752  1194  1183    1
  1753  1197  1198    1
  1754  1238  1239    1
  1755  1153  1152   ar
  1756  1153  1143   ar
  1757  1242  1243    1
  1758  1242  1240    1
  1759  1144  1143   ar
  1760  1202  1201    1
  1761  1219  1220    1
  1762  1245  1241    1
  1763  1198  1199    1
  1764  1222  1223    1
  1765  1222  1224    1
  1766  1222  1220    1
  1767  1176  1175    1
  1768  1119  1132    1
  1769  1143  1142    1
  1770  1224  1225    1
  1771  1220  1221    1
  1772  1201  1199    1
  1773  1201  1203    1
  1774  1225  1221    1
  1775  1241  1240    1
  1776  1132  1135    1
  1777  1132  1133    1
  1778  1240  1239    1
  1779  1183  1182    1
  1780  1199  1200    1
  1781  1177  1175    2
  1782  1135  1136    1
  1783  1142  1138    1
  1784  1142  1141    1
  1785  1203  1204    1
  1786  1138  1137    1
  1787  1206  1207   ar
  1788  1206  1205   ar
  1789  1200  1204    1
  1790  1207  1208   ar
  1791  1182  1180    1
  1792  1182  1184    1
  1793  1178  1179    1
  1794  1178  1162    1
  1795  1179  1180    1
  1796  1205  1204    1
  1797  1205  1214   ar
  1798  1208  1214   ar
  1799  1208  1209   ar
  1800  1136  1137    1
  1801  1210  1209    1
  1802  1141  1139    1
  1803  1214  1213   ar
  1804  1209  1211   ar
  1805  1180  1181    1
  1806  1137  1139    1
  1807  1139  1140    1
  1808  1162  1161    1
  1809  1184  1185    1
  1810  1213  1212   ar
  1811  1211  1212   ar
  1812  1156  1154    2
  1813  1157  1158    1
  1814  1157  1154    1
  1815  1161  1159    1
  1816  1161  1163    1
  1817  1158  1159    1
  1818  1181  1185    1
  1819  1140  1154    1
  1820  1185  1186    1
  1821  1193  1186   ar
  1822  1193  1192   ar
  1823  1154  1155    1
  1824  1186  1187   ar
  1825  1192  1190   ar
  1826  1159  1160    1
  1827  1187  1188    2
  1828  1187  1189   ar
  1829  1190  1189   ar
  1830  1190  1191    1
  1831  1163  1164    1
  1832  1160  1164    1
  1833  1164  1165    1
  1834  1166  1165   ar
  1835  1166  1167   ar
  1836  1165  1174   ar
  1837  1167  1168   ar
  1838  1174  1168   ar
  1839  1174  1173   ar
  1840  1168  1169   ar
  1841  1173  1172   ar
  1842  1169  1170    1
  1843  1169  1171   ar
  1844  1172  1171   ar
