@<TRIPOS>MOLECULE
dna.pdb
 1573 1757 0 0 0
SMALL
GASTEIGER

@<TRIPOS>ATOM
      1  O5'       10.2500   12.6340  -21.4920 O.3     1  DA1        -0.2176
      2  C5'       10.8240   13.1340  -20.2910 C.3     1  DA1         0.2140
      3  C4'        9.8020   13.2190  -19.1800 C.3     1  DA1         0.1776
      4  O4'        8.4910   13.4360  -19.7550 O.3     1  DA1        -0.3326
      5  C3'        9.6750   12.0010  -18.2660 C.3     1  DA1         0.1559
      6  O3'       10.4250   12.2050  -17.0750 O.3     1  DA1        -0.3138
      7  C2'        8.1770   11.8520  -17.9790 C.3     1  DA1         0.0865
      8  C1'        7.5030   12.8200  -18.9600 C.3     1  DA1         0.2094
      9  N9         6.5700   12.3970  -20.4000 N.ar    1  DA1        -0.2714
     10  C8         6.4150   12.0250  -21.7100 C.ar    1  DA1         0.1815
     11  N7         5.2370   12.3200  -22.2080 N.ar    1  DA1        -0.2193
     12  C5         4.5740   12.9270  -21.1540 C.ar    1  DA1         0.1518
     13  C6         3.2820   13.4700  -21.0360 C.ar    1  DA1         0.1919
     14  N6         2.3950   13.4900  -22.0330 N.pl3   1  DA1        -0.1054
     15  N1         2.9320   13.9980  -19.8440 N.ar    1  DA1        -0.2040
     16  C2         3.8220   13.9790  -18.8450 C.ar    1  DA1         0.2016
     17  N3         5.0630   13.4980  -18.8350 N.ar    1  DA1        -0.2048
     18  C4         5.3810   12.9800  -20.0330 C.ar    1  DA1         0.1691
     19  P         11.2870   11.4150  -16.1090 P.3     2  DT2         0.2141
     20  OP1       12.6220   11.5160  -15.4490 O.3     2  DT2        -0.4373
     21  OP2       10.5710   10.1180  -16.1410 O.2     2  DT2        -0.5172
     22  O5'       10.3760   12.5470  -15.4630 O.3     2  DT2        -0.3114
     23  C5'       10.8890   13.8650  -15.3040 C.3     2  DT2         0.1811
     24  C4'       10.1360   14.6040  -14.2290 C.3     2  DT2         0.1746
     25  O4'        8.7410   14.7100  -14.6150 O.3     2  DT2        -0.3327
     26  C3'       10.0860   13.9280  -12.8670 C.3     2  DT2         0.1558
     27  O3'       11.2510   14.2060  -12.1030 O.3     2  DT2        -0.3138
     28  C2'        8.8450   14.5560  -12.2500 C.3     2  DT2         0.0866
     29  C1'        7.9240   14.6460  -13.4600 C.3     2  DT2         0.2106
     30  N1         7.0220   13.4080  -13.4610 N.ar    2  DT2        -0.2559
     31  C2         5.8660   13.4740  -12.7070 C.ar    2  DT2         0.3545
     32  O2         5.5810   14.4310  -12.0100 O.2     2  DT2        -0.2443
     33  N3         5.0500   12.3720  -12.7980 N.ar    2  DT2        -0.1533
     34  C4         5.2700   11.2370  -13.5500 C.ar    2  DT2         0.2804
     35  O4         4.4420   10.3290  -13.5300 O.2     2  DT2        -0.2654
     36  C5         6.4920   11.2440  -14.3030 C.ar    2  DT2         0.0534
     37  C6         7.3040   12.3030  -14.2330 C.ar    2  DT2         0.0824
     38  C7         6.8220   10.0530  -15.1520 C.3     2  DT2         0.0377
     39  P         11.5420   13.3240  -10.6980 P.3     3  DA3         0.2141
     40  OP1       12.7900   14.0910  -10.4910 O.3     3  DA3        -0.4373
     41  OP2       11.6040   11.9520  -11.2450 O.2     3  DA3        -0.5172
     42  O5'       10.7420   13.2670   -9.3130 O.3     3  DA3        -0.3114
     43  C5'       10.7540   14.3760   -8.4190 C.3     3  DA3         0.1811
     44  C4'        9.4260   14.4960   -7.6940 C.3     3  DA3         0.1746
     45  O4'        8.3630   14.4330   -8.6780 O.3     3  DA3        -0.3327
     46  C3'        9.1170   13.3930   -6.6880 C.3     3  DA3         0.1558
     47  O3'        9.5660   13.7750   -5.3870 O.3     3  DA3        -0.3138
     48  C2'        7.5920   13.3260   -6.7350 C.3     3  DA3         0.0865
     49  C1'        7.2720   13.6800   -8.1840 C.3     3  DA3         0.2094
     50  N9         7.1070   12.6290   -9.0710 N.ar    3  DA3        -0.2714
     51  C8         8.0310   12.1320   -9.9540 C.ar    3  DA3         0.1815
     52  N7         7.6220   11.0690  -10.6050 N.ar    3  DA3        -0.2193
     53  C5         6.3440   10.8510  -10.1150 C.ar    3  DA3         0.1518
     54  C6         5.3740    9.8750  -10.4040 C.ar    3  DA3         0.1919
     55  N6         5.5520    8.8960  -11.2940 N.pl3   3  DA3        -0.1054
     56  N1         4.2010    9.9410   -9.7380 N.ar    3  DA3        -0.2040
     57  C2         4.0230   10.9240   -8.8470 C.ar    3  DA3         0.2016
     58  N3         4.8570   11.8980   -8.4910 N.ar    3  DA3        -0.2048
     59  C4         6.0130   11.8030   -9.1700 C.ar    3  DA3         0.1691
     60  P         10.0830   12.5710   -4.1930 P.3     4  DC4         0.2141
     61  OP1       10.2970   12.9570   -2.7730 O.3     4  DC4        -0.4373
     62  OP2       10.8250   11.4110   -4.7640 O.2     4  DC4        -0.5172
     63  O5'        8.5280   12.2770   -4.3410 O.3     4  DC4        -0.3114
     64  C5'        7.5790   13.0560   -3.6370 C.3     4  DC4         0.1811
     65  C4'        6.2620   12.3320   -3.5580 C.3     4  DC4         0.1746
     66  O4'        5.7370   12.1020   -4.8940 O.3     4  DC4        -0.3327
     67  C3'        6.3650   10.9420   -2.9790 C.3     4  DC4         0.1558
     68  O3'        6.3540   11.0280   -1.5770 O.3     4  DC4        -0.3138
     69  C2'        5.1230   10.2630   -3.5290 C.3     4  DC4         0.0866
     70  C1'        5.0430   10.8630   -4.9320 C.3     4  DC4         0.2106
     71  N1         5.6160   10.0470   -5.9590 N.ar    4  DC4        -0.2556
     72  C2         4.8640    8.9730   -6.4470 C.ar    4  DC4         0.3531
     73  O2         3.6920    8.8360   -6.0560 O.2     4  DC4        -0.2443
     74  N3         5.4330    8.1160   -7.3280 N.ar    4  DC4        -0.1739
     75  C4         6.6950    8.3020   -7.7190 C.ar    4  DC4         0.1759
     76  N4         7.2130    7.4310   -8.5890 N.pl3   4  DC4        -0.1070
     77  C5         7.4740    9.3840   -7.2360 C.ar    4  DC4         0.0566
     78  C6         6.9080   10.2280   -6.3660 C.ar    4  DC4         0.0849
     79  P          6.7000    9.5970   -0.6970 P.3     5  DC5         0.2141
     80  OP1        6.4040   10.0050    0.6940 O.3     5  DC5        -0.4373
     81  OP2        7.9890    8.9410   -1.0090 O.2     5  DC5        -0.5172
     82  O5'        5.5360    8.6430   -1.2320 O.3     5  DC5        -0.3114
     83  C5'        4.1850    8.8220   -0.8230 C.3     5  DC5         0.1812
     84  C4'        3.4050    7.5460   -1.0650 C.3     5  DC5         0.1773
     85  O4'        3.1670    7.3650   -2.4840 O.3     5  DC5        -0.3347
     86  C3'        4.1400    6.2690   -0.6910 C.3     5  DC5         0.1862
     87  O3'        4.1650    6.0570    0.7130 O.3     5  DC5        -0.2133
     88  C2'        3.3180    5.2390   -1.4560 C.3     5  DC5         0.0866
     89  C1'        3.1350    5.9770   -2.7790 C.3     5  DC5         0.2000
     90  N1         4.2400    5.6620   -3.7670 N.pl3   5  DC5        -0.2149
     91  C2         4.1340    4.4530   -4.4630 C.2     5  DC5         0.4092
     92  O2         3.1370    3.7370   -4.2700 O.2     5  DC5        -0.4038
     93  N3         5.1190    4.1000   -5.3240 N.2     5  DC5         0.0218
     94  C4         6.1710    4.9000   -5.4980 C.2     5  DC5         0.4171
     95  N4         7.1170    4.5100   -6.3570 N.pl3   5  DC5         0.2162
     96  C5         6.2970    6.1290   -4.8020 C.2     5  DC5         0.0937
     97  C6         5.3230    6.4740   -3.9530 C.3     5  DC5         0.1339
     98  P          5.5510    5.2410    1.6200 P.3     6  DA6         0.3939
     99  OP1        6.8000    5.3280    2.4240 O.3     6  DA6        -0.1425
    100  OP2        5.5830    5.5200    0.1630 O.3     6  DA6        -0.1496
    101  O5'        4.9400    3.7540    1.6990 O.3     6  DA6        -0.2926
    102  C5'        3.5690    3.5370    1.3550 C.3     6  DA6         0.1828
    103  C4'        3.3500    2.5490    0.2210 C.3     6  DA6         0.1747
    104  O4'        4.1640    2.8550   -0.9350 O.3     6  DA6        -0.3327
    105  C3'        3.7600    1.1190    0.5410 C.3     6  DA6         0.1558
    106  O3'        2.7970    0.4370    1.3340 O.3     6  DA6        -0.3138
    107  C2'        3.8280    0.4880   -0.8330 C.3     6  DA6         0.0865
    108  C1'        4.4030    1.6480   -1.6610 C.3     6  DA6         0.2094
    109  N9         5.9200    1.5760   -1.9340 N.ar    6  DA6        -0.2714
    110  C8         6.7970    2.4670   -1.3710 C.ar    6  DA6         0.1815
    111  N7         8.0550    2.2210   -1.6540 N.ar    6  DA6        -0.2193
    112  C5         8.0000    1.0920   -2.4560 C.ar    6  DA6         0.1518
    113  C6         9.0000    0.3300   -3.0860 C.ar    6  DA6         0.1919
    114  N6        10.3030    0.6060   -3.0030 N.pl3   6  DA6        -0.1054
    115  N1         8.6080   -0.7380   -3.8140 N.ar    6  DA6        -0.2040
    116  C2         7.3010   -1.0130   -3.8980 C.ar    6  DA6         0.2016
    117  N3         6.2700   -0.3720   -3.3530 N.ar    6  DA6        -0.2048
    118  C4         6.6920    0.6820   -2.6360 C.ar    6  DA6         0.1691
    119  P          3.1920   -0.3020    2.5410 P.3     7  DG7         0.2141
    120  OP1        2.2460   -0.8490    3.5390 O.3     7  DG7        -0.4373
    121  OP2        4.2100    0.6900    2.9570 O.2     7  DG7        -0.5172
    122  O5'        3.9430   -1.5170    1.8180 O.3     7  DG7        -0.3114
    123  C5'        3.1910   -2.6450    1.3960 C.3     7  DG7         0.1811
    124  C4'        4.0670   -3.6640    0.6990 C.3     7  DG7         0.1746
    125  O4'        4.7910   -3.0290   -0.3750 O.3     7  DG7        -0.3327
    126  C3'        5.1660   -4.2580    1.5560 C.3     7  DG7         0.1558
    127  O3'        4.6320   -5.2920    2.3670 O.3     7  DG7        -0.3138
    128  C2'        6.1030   -4.7960    0.4800 C.3     7  DG7         0.0865
    129  C1'        6.0240   -3.7010   -0.5700 C.3     7  DG7         0.2094
    130  N9         6.9900   -2.7950   -0.5080 N.ar    7  DG7        -0.2713
    131  C8         6.8720   -1.5820    0.1250 C.ar    7  DG7         0.1816
    132  N7         8.0120   -0.9660    0.2770 N.ar    7  DG7        -0.2173
    133  C5         8.9410   -1.8200   -0.2890 C.ar    7  DG7         0.1748
    134  C6        10.3480   -1.6970   -0.4220 C.ar    7  DG7         0.3023
    135  O6        11.0740   -0.7660   -0.0500 O.2     7  DG7        -0.2633
    136  N1        10.9090   -2.7990   -1.0620 N.ar    7  DG7        -0.1709
    137  C2        10.2020   -3.8850   -1.5170 C.ar    7  DG7         0.2606
    138  N2        10.9180   -4.8510   -2.1090 N.pl3   7  DG7        -0.0859
    139  N3         8.8950   -4.0150   -1.3990 N.ar    7  DG7        -0.1918
    140  C4         8.3290   -2.9570   -0.7800 C.ar    7  DG7         0.1722
    141  P          4.8350   -5.3870    3.8020 P.3     8  DC8         0.2141
    142  OP1        3.8560   -6.3760    4.3280 O.2     8  DC8        -0.5172
    143  OP2        5.3790   -4.3360    4.6990 O.3     8  DC8        -0.4373
    144  O5'        6.0360   -6.1990    3.1540 O.3     8  DC8        -0.3114
    145  C5'        5.7860   -7.4280    2.4990 C.3     8  DC8         0.1811
    146  C4'        7.0720   -8.1690    2.2990 C.3     8  DC8         0.1746
    147  O4'        7.8400   -7.5130    1.2550 O.3     8  DC8        -0.3327
    148  C3'        8.0100   -8.1460    3.4890 C.3     8  DC8         0.1558
    149  O3'        7.6620   -9.0210    4.5420 O.3     8  DC8        -0.3138
    150  C2'        9.3530   -8.4190    2.8380 C.3     8  DC8         0.0866
    151  C1'        9.2270   -7.5690    1.5720 C.3     8  DC8         0.2106
    152  N1         9.6970   -6.1740    1.7590 N.ar    8  DC8        -0.2556
    153  C2        11.0670   -5.9190    1.6230 C.ar    8  DC8         0.3531
    154  O2        11.8210   -6.8560    1.3110 O.2     8  DC8        -0.2443
    155  N3        11.5280   -4.6630    1.8360 N.ar    8  DC8        -0.1739
    156  C4        10.6810   -3.6890    2.1700 C.ar    8  DC8         0.1759
    157  N4        11.1810   -2.4670    2.3690 N.pl3   8  DC8        -0.1070
    158  C5         9.2900   -3.9270    2.3130 C.ar    8  DC8         0.0566
    159  C6         8.8380   -5.1680    2.1020 C.ar    8  DC8         0.0849
    160  P          7.7900   -8.4630    6.0760 P.3     9  DT9         0.2141
    161  OP1        7.0170   -9.6150    6.5880 O.2     9  DT9        -0.5172
    162  OP2        7.5290   -7.1170    6.6280 O.3     9  DT9        -0.4373
    163  O5'        9.3510   -8.7690    6.2060 O.3     9  DT9        -0.3114
    164  C5'       10.0240   -9.5790    5.2400 C.3     9  DT9         0.1811
    165  C4'       11.5170   -9.5330    5.4510 C.3     9  DT9         0.1746
    166  O4'       12.2040   -8.7070    4.4800 O.3     9  DT9        -0.3327
    167  C3'       11.9930   -8.9990    6.7860 C.3     9  DT9         0.1558
    168  O3'       11.8300   -9.9910    7.7840 O.3     9  DT9        -0.3138
    169  C2'       13.4550   -8.7050    6.4920 C.3     9  DT9         0.0866
    170  C1'       13.3850   -8.1770    5.0600 C.3     9  DT9         0.2106
    171  N1        13.0860   -6.6040    5.1970 N.ar    9  DT9        -0.2559
    172  C2        14.2160   -5.8170    5.3040 C.ar    9  DT9         0.3545
    173  O2        15.3460   -6.2570    5.1860 O.2     9  DT9        -0.2443
    174  N3        13.9770   -4.4870    5.5560 N.ar    9  DT9        -0.1533
    175  C4        12.7480   -3.8800    5.7080 C.ar    9  DT9         0.2804
    176  O4        12.6930   -2.6730    5.9300 O.2     9  DT9        -0.2654
    177  C5        11.6230   -4.7640    5.5840 C.ar    9  DT9         0.0534
    178  C6        11.8280   -6.0610    5.3390 C.ar    9  DT9         0.0824
    179  C7        10.2420   -4.1980    5.7340 C.3     9  DT9         0.0377
    180  P         11.7100   -9.5670    9.1110 P.3    10  DT10        0.2141
    181  OP1       12.3080  -10.9290    9.0150 O.2    10  DT10       -0.5172
    182  OP2       10.4340   -9.3760    9.8480 O.3    10  DT10       -0.4373
    183  O5'       12.7580   -8.5680    9.7660 O.3    10  DT10       -0.3114
    184  C5'       14.1590   -8.6290    9.4680 C.3    10  DT10        0.1811
    185  C4'       14.8810   -7.5290   10.2020 C.3    10  DT10        0.1746
    186  O4'       14.5550   -6.2500    9.6020 O.3    10  DT10       -0.3327
    187  C3'       14.4200   -7.3680   11.6430 C.3    10  DT10        0.1558
    188  O3'       15.0890   -8.2730   12.4920 O.3    10  DT10       -0.3138
    189  C2'       14.7400   -5.9160   11.9370 C.3    10  DT10        0.0866
    190  C1'       14.3700   -5.2640   10.6130 C.3    10  DT10        0.2106
    191  N1        13.0180   -4.7850   10.5580 N.ar   10  DT10       -0.2559
    192  C2        12.8260   -3.5820   11.2100 C.ar   10  DT10        0.3545
    193  O2        13.7450   -2.8870   11.6060 O.2    10  DT10       -0.2443
    194  N3        11.5120   -3.2200   11.3850 N.ar   10  DT10       -0.1533
    195  C4        10.3970   -3.9240   10.9810 C.ar   10  DT10        0.2804
    196  O4         9.2790   -3.4680   11.2090 O.2    10  DT10       -0.2654
    197  C5        10.6790   -5.1620   10.3120 C.ar   10  DT10        0.0534
    198  C6        11.9470   -5.5390   10.1290 C.ar   10  DT10        0.0824
    199  C7         9.5310   -6.0010    9.8350 C.3    10  DT10        0.0377
    200  P         14.4520   -8.4660   14.2010 P.3    11  DA11        0.2141
    201  OP1       15.0580   -9.0920   15.4100 O.3    11  DA11       -0.4373
    202  OP2       13.0180   -8.6830   13.9190 O.2    11  DA11       -0.5172
    203  O5'       14.7290   -6.8980   14.2550 O.3    11  DA11       -0.3114
    204  C5'       15.9330   -6.3640   14.8450 C.3    11  DA11        0.1811
    205  C4'       15.5820   -5.3190   15.8860 C.3    11  DA11        0.1746
    206  O4'       14.8830   -4.2170   15.2550 O.3    11  DA11       -0.3327
    207  C3'       14.6470   -5.8010   16.9830 C.3    11  DA11        0.1558
    208  O3'       15.4440   -6.3790   18.0130 O.3    11  DA11       -0.3138
    209  C2'       13.9570   -4.5150   17.4310 C.3    11  DA11        0.0865
    210  C1'       13.8810   -3.7220   16.1250 C.3    11  DA11        0.2094
    211  N9        12.6190   -3.8470   15.3910 N.ar   11  DA11       -0.2714
    212  C8        12.1510   -4.8530   14.5870 C.ar   11  DA11        0.1815
    213  N7        10.8590   -4.7940   14.3640 N.ar   11  DA11       -0.2193
    214  C5        10.4510   -3.6730   15.0690 C.ar   11  DA11        0.1518
    215  C6         9.1940   -3.0660   15.2370 C.ar   11  DA11        0.1919
    216  N6         8.0710   -3.5260   14.6800 N.pl3  11  DA11       -0.1054
    217  N1         9.1310   -1.9580   16.0050 N.ar   11  DA11       -0.2040
    218  C2        10.2570   -1.4970   16.5620 C.ar   11  DA11        0.2016
    219  N3        11.4950   -1.9790   16.4770 N.ar   11  DA11       -0.2048
    220  C4        11.5240   -3.0800   15.7080 C.ar   11  DA11        0.1691
    221  P         14.8890   -7.6300   18.9520 P.3    12  DT12        0.2141
    222  OP1       15.8430   -8.6010   19.4680 O.3    12  DT12       -0.4373
    223  OP2       13.8810   -7.8810   17.9270 O.2    12  DT12       -0.5172
    224  O5'       14.1030   -6.7790   20.0090 O.3    12  DT12       -0.3114
    225  C5'       14.8180   -5.9580   20.8870 C.3    12  DT12        0.1811
    226  C4'       13.7920   -5.0300   21.5050 C.3    12  DT12        0.1746
    227  O4'       13.3710   -4.2570   20.3830 O.3    12  DT12       -0.3327
    228  C3'       12.4450   -5.5610   22.0150 C.3    12  DT12        0.1558
    229  O3'       12.4020   -6.0530   23.3920 O.3    12  DT12       -0.3138
    230  C2'       11.7130   -4.2580   22.0240 C.3    12  DT12        0.0866
    231  C1'       12.0790   -3.7250   20.6830 C.3    12  DT12        0.2106
    232  N1        11.1530   -3.9990   19.7180 N.ar   12  DT12       -0.2559
    233  C2         9.9300   -3.3610   19.6330 C.ar   12  DT12        0.3545
    234  O2         9.5860   -2.4790   20.4000 O.2    12  DT12       -0.2443
    235  N3         9.1190   -3.7940   18.6130 N.ar   12  DT12       -0.1533
    236  C4         9.4010   -4.7790   17.6900 C.ar   12  DT12        0.2804
    237  O4         8.5700   -5.0580   16.8290 O.2    12  DT12       -0.2654
    238  C5        10.6890   -5.3950   17.8450 C.ar   12  DT12        0.0534
    239  C6        11.4980   -4.9920   18.8290 C.ar   12  DT12        0.0824
    240  C7        11.0890   -6.4800   16.8890 C.3    12  DT12        0.0377
    241  P         11.5500   -7.4070   23.8420 P.3    13  DT13        0.2141
    242  OP1       12.2810   -7.9680   25.0040 O.3    13  DT13       -0.4373
    243  OP2       11.2260   -8.2910   22.6950 O.2    13  DT13       -0.5172
    244  O5'       10.2200   -6.7030   24.3550 O.3    13  DT13       -0.3114
    245  C5'       10.3120   -5.6760   25.3280 C.3    13  DT13        0.1811
    246  C4'        9.1710   -4.7040   25.1910 C.3    13  DT13        0.1746
    247  O4'        9.2550   -3.9890   23.9300 O.3    13  DT13       -0.3327
    248  C3'        7.7870   -5.3120   25.1650 C.3    13  DT13        0.1558
    249  O3'        7.3710   -5.6140   26.4830 O.3    13  DT13       -0.3138
    250  C2'        6.9780   -4.1810   24.5520 C.3    13  DT13        0.0866
    251  C1'        7.9450   -3.6750   23.4750 C.3    13  DT13        0.2106
    252  N1         7.7070   -4.3760   22.2150 N.ar   13  DT13       -0.2559
    253  C2         6.7380   -3.8980   21.3540 C.ar   13  DT13        0.3545
    254  O2         6.0240   -2.9470   21.6190 O.2    13  DT13       -0.2443
    255  N3         6.6320   -4.5770   20.1640 N.ar   13  DT13       -0.1533
    256  C4         7.3820   -5.6610   19.7580 C.ar   13  DT13        0.2804
    257  O4         7.1710   -6.1640   18.6570 O.2    13  DT13       -0.2654
    258  C5         8.3660   -6.0980   20.7070 C.ar   13  DT13        0.0534
    259  C6         8.4900   -5.4560   21.8720 C.ar   13  DT13        0.0824
    260  C7         9.2320   -7.2720   20.3580 C.3    13  DT13        0.0377
    261  P          6.4870   -6.8830   26.7600 P.3    14  DC14        0.2141
    262  OP1        6.1080   -7.6100   27.9940 O.3    14  DC14       -0.4373
    263  OP2        7.1890   -7.5750   25.6530 O.2    14  DC14       -0.5172
    264  O5'        5.1580   -6.2380   26.1870 O.3    14  DC14       -0.3114
    265  C5'        4.5760   -5.2240   26.9610 C.3    14  DC14        0.1811
    266  C4'        3.5090   -4.5860   26.1150 C.3    14  DC14        0.1746
    267  O4'        4.0420   -4.3930   24.7840 O.3    14  DC14       -0.3327
    268  C3'        2.3090   -5.4800   25.8780 C.3    14  DC14        0.1558
    269  O3'        1.4400   -5.4530   27.0160 O.3    14  DC14       -0.3138
    270  C2'        1.7100   -4.7780   24.6650 C.3    14  DC14        0.0866
    271  C1'        2.9430   -4.2840   23.9060 C.3    14  DC14        0.2106
    272  N1         3.2730   -4.6300   22.8080 N.ar   14  DC14       -0.2556
    273  C2         2.5370   -4.4380   21.6340 C.ar   14  DC14        0.3531
    274  O2         1.7330   -3.4920   21.5800 O.2    14  DC14       -0.2443
    275  N3         2.7210   -5.2860   20.5940 N.ar   14  DC14       -0.1739
    276  C4         3.5950   -6.2880   20.6970 C.ar   14  DC14        0.1759
    277  N4         3.7430   -7.0980   19.6460 N.pl3  14  DC14       -0.1070
    278  C5         4.3510   -6.5000   21.8780 C.ar   14  DC14        0.0566
    279  C6         4.1660   -5.6600   22.9030 C.ar   14  DC14        0.0849
    280  P          0.9930   -6.8360   27.6680 P.3    15  DA15        0.2141
    281  OP1        0.4400   -6.9880   29.0330 O.3    15  DA15       -0.4373
    282  OP2        2.1390   -7.6680   27.2370 O.2    15  DA15       -0.5172
    283  O5'       -0.1980   -7.0070   26.6140 O.3    15  DA15       -0.3114
    284  C5'       -1.2530   -6.0570   26.5930 C.3    15  DA15        0.1811
    285  C4'       -2.0310   -6.1470   25.2950 C.3    15  DA15        0.1746
    286  O4'       -1.2480   -5.6290   24.1930 O.3    15  DA15       -0.3327
    287  C3'       -2.3500   -7.5540   24.8300 C.3    15  DA15        0.1558
    288  O3'       -3.4120   -8.1050   25.5810 O.3    15  DA15       -0.3138
    289  C2'       -2.7560   -7.2620   23.3940 C.3    15  DA15        0.0865
    290  C1'       -1.6740   -6.2630   22.9980 C.3    15  DA15        0.2094
    291  N9        -0.5040   -6.9220   22.3440 N.ar   15  DA15       -0.2714
    292  C8         0.7330   -7.1780   22.8740 C.ar   15  DA15        0.1815
    293  N7         1.5620   -7.7480   22.0310 N.ar   15  DA15       -0.2193
    294  C5         0.8170   -7.8760   20.8690 C.ar   15  DA15        0.1518
    295  C6         1.1220   -8.4050   19.6030 C.ar   15  DA15        0.1919
    296  N6         2.3110   -8.9240   19.2860 N.pl3  15  DA15       -0.1054
    297  N1         0.1530   -8.3820   18.6640 N.ar   15  DA15       -0.2040
    298  C2        -1.0370   -7.8610   18.9820 C.ar   15  DA15        0.2016
    299  N3        -1.4430   -7.3340   20.1350 N.ar   15  DA15       -0.2048
    300  C4        -0.4580   -7.3730   21.0470 C.ar   15  DA15        0.1691
    301  P         -3.3100   -9.6200   25.9720 P.3    16  DA16        0.2141
    302  OP1       -4.3990  -10.1260   26.8430 O.3    16  DA16       -0.4373
    303  OP2       -1.9600  -10.2320   26.0550 O.2    16  DA16       -0.5172
    304  O5'       -3.8390   -9.7290   24.4760 O.3    16  DA16       -0.3114
    305  C5'       -5.1070   -9.1660   24.1050 C.3    16  DA16        0.1811
    306  C4'       -5.4470   -9.5450   22.6880 C.3    16  DA16        0.1746
    307  O4'       -4.4220   -9.0180   21.7960 O.3    16  DA16       -0.3327
    308  C3'       -5.5150  -11.0400   22.4020 C.3    16  DA16        0.1558
    309  O3'       -6.4690  -11.2070   21.3610 O.3    16  DA16       -0.3138
    310  C2'       -4.1000  -11.3360   21.9110 C.3    16  DA16        0.0865
    311  C1'       -3.8120  -10.0820   21.0920 C.3    16  DA16        0.2094
    312  N9        -2.6040   -9.8630   20.9320 N.ar   16  DA16       -0.2714
    313  C8        -1.9330  -10.2580   22.0590 C.ar   16  DA16        0.1815
    314  N7        -0.6970  -10.6360   21.8340 N.ar   16  DA16       -0.2193
    315  C5        -0.5460  -10.4790   20.4650 C.ar   16  DA16        0.1518
    316  C6         0.5380  -10.7080   19.6000 C.ar   16  DA16        0.1919
    317  N6         1.7250  -11.1640   20.0070 N.pl3  16  DA16       -0.1054
    318  N1         0.3570  -10.4500   18.2870 N.ar   16  DA16       -0.2040
    319  C2        -0.8320   -9.9930   17.8800 C.ar   16  DA16        0.2016
    320  N3        -1.9240   -9.7370   18.5970 N.ar   16  DA16       -0.2048
    321  C4        -1.7130  -10.0040   19.8960 C.ar   16  DA16        0.1691
    322  P         -7.0330  -12.5220   20.7890 P.3    17  DT17        0.2141
    323  OP1       -7.8720  -13.4520   21.5840 O.3    17  DT17       -0.4373
    324  OP2       -5.6310  -12.8580   20.5430 O.2    17  DT17       -0.5172
    325  O5'       -7.7310  -12.3320   19.3750 O.3    17  DT17       -0.3114
    326  C5'       -7.8190  -13.4190   18.4480 C.3    17  DT17        0.1811
    327  C4'       -7.2690  -12.9950   17.1180 C.3    17  DT17        0.1746
    328  O4'       -5.9620  -12.4190   17.3330 O.3    17  DT17       -0.3327
    329  C3'       -7.0360  -14.1390   16.1530 C.3    17  DT17        0.1558
    330  O3'       -8.2000  -14.4390   15.4070 O.3    17  DT17       -0.3138
    331  C2'       -5.8660  -13.6460   15.3080 C.3    17  DT17        0.0866
    332  C1'       -5.0520  -12.8920   16.3510 C.3    17  DT17        0.2106
    333  N1        -3.9480  -13.6650   16.9380 N.ar   17  DT17       -0.2559
    334  C2        -2.8150  -14.0440   16.2430 C.ar   17  DT17        0.3545
    335  O2        -2.7070  -13.9250   15.0350 O.2    17  DT17       -0.2443
    336  N3        -1.8080  -14.5700   17.0150 N.ar   17  DT17       -0.1533
    337  C4        -1.8190  -14.7520   18.3820 C.ar   17  DT17        0.2804
    338  O4        -0.8360  -15.2370   18.9360 O.2    17  DT17       -0.2654
    339  C5        -3.0300  -14.3360   19.0320 C.ar   17  DT17        0.0534
    340  C6        -4.0250  -13.8200   18.3050 C.ar   17  DT17        0.0824
    341  C7        -3.1400  -14.4940   20.5200 C.3    17  DT17        0.0377
    342  P         -8.5590  -15.7070   15.3830 P.3    18  DT18        0.2141
    343  OP1       -9.7650  -16.0370   14.5830 O.2    18  DT18       -0.5172
    344  OP2       -8.5410  -16.0120   16.8350 O.3    18  DT18       -0.4373
    345  O5'       -7.2930  -16.4030   14.7070 O.3    18  DT18       -0.3114
    346  C5'       -6.9910  -16.1710   13.3340 C.3    18  DT18        0.1811
    347  C4'       -5.6990  -16.8530   12.9380 C.3    18  DT18        0.1746
    348  O4'       -4.5900  -16.3190   13.7090 O.3    18  DT18       -0.3327
    349  C3'       -5.5870  -18.3470   13.1850 C.3    18  DT18        0.1558
    350  O3'       -6.2770  -19.1080   12.2010 O.3    18  DT18       -0.3138
    351  C2'       -4.0810  -18.5470   13.0820 C.3    18  DT18        0.0866
    352  C1'       -3.5690  -17.3050   13.8100 C.3    18  DT18        0.2106
    353  N1        -3.3010  -17.6310   15.2220 N.ar   18  DT18       -0.2559
    354  C2        -2.0360  -18.0440   15.5960 C.ar   18  DT18        0.3545
    355  O2        -1.1270  -18.2010   14.8000 O.2    18  DT18       -0.2443
    356  N3        -1.8720  -18.2690   16.9410 N.ar   18  DT18       -0.1533
    357  C4        -2.8250  -18.1260   17.9280 C.ar   18  DT18        0.2804
    358  O4        -2.5270  -18.3650   19.0960 O.2    18  DT18       -0.2654
    359  C5        -4.1120  -17.6950   17.4610 C.ar   18  DT18        0.0534
    360  C6        -4.2990  -17.4690   16.1580 C.ar   18  DT18        0.0824
    361  C7        -5.2160  -17.5100   18.4590 C.3    18  DT18        0.0377
    362  P         -6.7150  -20.5850   12.5460 P.3    19  DA19        0.2141
    363  OP1       -7.5320  -21.3170   11.5520 O.2    19  DA19       -0.5172
    364  OP2       -7.1370  -20.5360   13.9630 O.3    19  DA19       -0.4373
    365  O5'       -5.2550  -21.2380   12.6130 O.3    19  DA19       -0.3114
    366  C5'       -4.5000  -21.4290   11.4260 C.3    19  DA19        0.1811
    367  C4'       -3.2110  -22.1700   11.6880 C.3    19  DA19        0.1746
    368  O4'       -2.2630  -21.3200   12.3880 O.3    19  DA19       -0.3327
    369  C3'       -3.3050  -23.3970   12.5790 C.3    19  DA19        0.1558
    370  O3'       -3.8320  -24.5390   11.9230 O.3    19  DA19       -0.3138
    371  C2'       -1.8590  -23.5630   13.0250 C.3    19  DA19        0.0865
    372  C1'       -1.4500  -22.1060   13.2350 C.3    19  DA19        0.2094
    373  N9        -1.7030  -21.6680   14.6820 N.ar   19  DA19       -0.2714
    374  C8        -2.7360  -20.9720   15.2520 C.ar   19  DA19        0.1815
    375  N7        -2.6670  -20.8990   16.5600 N.ar   19  DA19       -0.2193
    376  C5        -1.5100  -21.5960   16.8710 C.ar   19  DA19        0.1518
    377  C6        -0.8770  -21.8830   18.0930 C.ar   19  DA19        0.1919
    378  N6        -1.3440  -21.4840   19.2780 N.pl3  19  DA19       -0.1054
    379  N1         0.2640  -22.6030   18.0540 N.ar   19  DA19       -0.2040
    380  C2         0.7320  -23.0010   16.8650 C.ar   19  DA19        0.2016
    381  N3         0.2280  -22.7930   15.6510 N.ar   19  DA19       -0.2048
    382  C4        -0.9060  -22.0760   15.7240 C.ar   19  DA19        0.1691
    383  P         -4.9360  -25.5160   12.7250 P.3    20  DA20        0.2141
    384  OP1       -5.6290  -26.5410   11.9110 O.2    20  DA20       -0.5172
    385  OP2       -5.6850  -24.5930   13.6120 O.3    20  DA20       -0.4373
    386  O5'       -3.9080  -26.2770   13.6800 O.3    20  DA20       -0.3114
    387  C5'       -3.1220  -27.2890   13.0740 C.3    20  DA20        0.1811
    388  C4'       -2.0220  -27.7620   13.9850 C.3    20  DA20        0.1746
    389  O4'       -1.3340  -26.6100   14.5340 O.3    20  DA20       -0.3327
    390  C3'       -2.4610  -28.5410   15.2140 C.3    20  DA20        0.1558
    391  O3'       -2.7820  -29.9000   14.9420 O.3    20  DA20       -0.3138
    392  C2'       -1.2680  -28.3490   16.1430 C.3    20  DA20        0.0865
    393  C1'       -0.8750  -26.9010   15.8370 C.3    20  DA20        0.2094
    394  N9        -1.4670  -25.9790   16.7240 N.ar   20  DA20       -0.2714
    395  C8        -2.5160  -25.1530   16.4180 C.ar   20  DA20        0.1815
    396  N7        -2.8820  -24.3740   17.4090 N.ar   20  DA20       -0.2193
    397  C5        -2.0140  -24.7130   18.4350 C.ar   20  DA20        0.1518
    398  C6        -1.8810  -24.2450   19.7540 C.ar   20  DA20        0.1919
    399  N6        -2.6550  -23.2950   20.2830 N.pl3  20  DA20       -0.1054
    400  N1        -0.9140  -24.7940   20.5190 N.ar   20  DA20       -0.2040
    401  C2        -0.1380  -25.7460   19.9870 C.ar   20  DA20        0.2016
    402  N3        -0.1660  -26.2670   18.7630 N.ar   20  DA20       -0.2048
    403  C4        -1.1380  -25.7010   18.0290 C.ar   20  DA20        0.1691
    404  P         -3.7910  -30.8700   16.0000 P.3    21  DT21        0.2141
    405  OP1       -4.5470  -31.9980   15.3920 O.2    21  DT21       -0.5172
    406  OP2       -4.4360  -30.0260   17.0460 O.3    21  DT21       -0.4373
    407  O5'       -2.4240  -31.3990   16.6070 O.3    21  DT21       -0.3114
    408  C5'       -2.4000  -31.8840   17.9220 C.3    21  DT21        0.1811
    409  C4'       -1.0970  -31.5610   18.5950 C.3    21  DT21        0.1746
    410  O4'       -0.7270  -30.1660   18.4120 O.3    21  DT21       -0.3327
    411  C3'       -1.2810  -31.6920   20.0880 C.3    21  DT21        0.1558
    412  O3'       -1.3400  -33.0290   20.5360 O.3    21  DT21       -0.3138
    413  C2'       -0.2270  -30.7610   20.6690 C.3    21  DT21        0.0866
    414  C1'       -0.2480  -29.6230   19.6450 C.3    21  DT21        0.2106
    415  N1        -1.3540  -28.6610   20.2450 N.ar   21  DT21       -0.2559
    416  C2        -1.2230  -27.9050   21.3940 C.ar   21  DT21        0.3545
    417  O2        -0.3950  -28.1420   22.2550 O.2    21  DT21       -0.2443
    418  N3        -2.1030  -26.8550   21.5020 N.ar   21  DT21       -0.1533
    419  C4        -3.0780  -26.4940   20.5960 C.ar   21  DT21        0.2804
    420  O4        -3.7940  -25.5230   20.8320 O.2    21  DT21       -0.2654
    421  C5        -3.1510  -27.3280   19.4290 C.ar   21  DT21        0.0534
    422  C6        -2.3080  -28.3550   19.2990 C.ar   21  DT21        0.0824
    423  C7        -4.1810  -27.0170   18.3830 C.3    21  DT21        0.0377
    424  P         -2.5710  -33.4140   21.3360 P.3    22  DC22        0.2141
    425  OP1       -2.8990  -34.8390   21.1090 O.2    22  DC22       -0.5172
    426  OP2       -3.6630  -32.4170   21.4190 O.3    22  DC22       -0.4373
    427  O5'       -1.7300  -33.2060   22.6910 O.3    22  DC22       -0.3114
    428  C5'       -2.3240  -33.2160   23.9890 C.3    22  DC22        0.1811
    429  C4'       -1.7090  -32.1820   24.9060 C.3    22  DC22        0.1746
    430  O4'       -1.4910  -30.9540   24.1580 O.3    22  DC22       -0.3327
    431  C3'       -2.5520  -31.7510   26.1040 C.3    22  DC22        0.1558
    432  O3'       -2.4600  -32.6060   27.2340 O.3    22  DC22       -0.3138
    433  C2'       -2.0700  -30.3320   26.3840 C.3    22  DC22        0.0866
    434  C1'       -1.7460  -29.8290   24.9730 C.3    22  DC22        0.2106
    435  N1        -3.0200  -29.1550   24.3010 N.ar   22  DC22       -0.2556
    436  C2        -3.4170  -27.8810   24.7240 C.ar   22  DC22        0.3531
    437  O2        -2.8690  -27.3850   25.7230 O.2    22  DC22       -0.2443
    438  N3        -4.3850  -27.2300   24.0360 N.ar   22  DC22       -0.1739
    439  C4        -4.9460  -27.8020   22.9700 C.ar   22  DC22        0.1759
    440  N4        -5.8960  -27.1220   22.3230 N.pl3  22  DC22       -0.1070
    441  C5        -4.5580  -29.0920   22.5250 C.ar   22  DC22        0.0566
    442  C6        -3.6020  -29.7320   23.2080 C.ar   22  DC22        0.0849
    443  P         -3.6120  -32.4720   28.2690 P.3    23  DG23        0.2141
    444  OP1       -3.6320  -33.2000   29.5680 O.3    23  DG23       -0.4373
    445  OP2       -4.7840  -32.5400   27.3770 O.2    23  DG23       -0.5172
    446  O5'       -3.4410  -30.9460   28.6410 O.3    23  DG23       -0.3114
    447  C5'       -4.2980  -30.3590   29.6050 C.3    23  DG23        0.1811
    448  C4'       -3.7480  -29.0330   30.0500 C.3    23  DG23        0.1746
    449  O4'       -3.3540  -28.2930   28.8730 O.3    23  DG23       -0.3327
    450  C3'       -4.7770  -28.1920   30.7860 C.3    23  DG23        0.1558
    451  O3'       -4.4380  -28.2350   32.1620 O.3    23  DG23       -0.3138
    452  C2'       -4.5770  -26.7960   30.2210 C.3    23  DG23        0.0865
    453  C1'       -4.0860  -27.0940   28.7970 C.3    23  DG23        0.2094
    454  N9        -5.2250  -27.1710   27.8040 N.ar   23  DG23       -0.2713
    455  C8        -5.6920  -28.2580   27.1070 C.ar   23  DG23        0.1816
    456  N7        -6.6980  -27.9760   26.3250 N.ar   23  DG23       -0.2173
    457  C5        -6.9100  -26.6220   26.5130 C.ar   23  DG23        0.1748
    458  C6        -7.8670  -25.7480   25.9370 C.ar   23  DG23        0.3023
    459  O6        -8.7500  -26.0160   25.1120 O.2    23  DG23       -0.2633
    460  N1        -7.7320  -24.4450   26.4080 N.ar   23  DG23       -0.1709
    461  C2        -6.7910  -24.0350   27.3210 C.ar   23  DG23        0.2606
    462  N2        -6.8170  -22.7370   27.6530 N.pl3  23  DG23       -0.0859
    463  N3        -5.8960  -24.8350   27.8660 N.ar   23  DG23       -0.1918
    464  C4        -6.0080  -26.1060   27.4240 C.ar   23  DG23        0.1722
    465  P         -5.5930  -27.8880   33.3860 P.3    24  DC24        0.2141
    466  OP1       -5.1950  -28.6720   34.5990 O.3    24  DC24       -0.4373
    467  OP2       -7.0100  -27.9310   32.8860 O.2    24  DC24       -0.5172
    468  O5'       -5.2850  -26.3410   33.6390 O.3    24  DC24       -0.3114
    469  C5'       -5.7520  -25.3630   32.6970 C.3    24  DC24        0.1811
    470  C4'       -6.1150  -24.0650   33.3830 C.3    24  DC24        0.1746
    471  O4'       -6.9530  -24.3230   34.5410 O.3    24  DC24       -0.3327
    472  C3'       -4.9670  -23.2400   33.9240 C.3    24  DC24        0.1558
    473  O3'       -4.3890  -22.4830   32.8730 O.3    24  DC24       -0.3138
    474  C2'       -5.6760  -22.3840   34.9670 C.3    24  DC24        0.0866
    475  C1'       -6.6620  -23.3860   35.5590 C.3    24  DC24        0.2106
    476  N1        -5.9470  -24.3260   36.7230 N.ar   24  DC24       -0.2556
    477  C2        -6.2030  -23.9350   38.0420 C.ar   24  DC24        0.3531
    478  O2        -6.7780  -22.8510   38.2440 O.2    24  DC24       -0.2443
    479  N3        -5.8170  -24.7450   39.0570 N.ar   24  DC24       -0.1739
    480  C4        -5.2020  -25.8980   38.7920 C.ar   24  DC24        0.1759
    481  N4        -4.8410  -26.6640   39.8240 N.pl3  24  DC24       -0.1070
    482  C5        -4.9340  -26.3120   37.4620 C.ar   24  DC24        0.0566
    483  C6        -5.3160  -25.5090   36.4640 C.ar   24  DC24        0.0849
    484  P         -2.8090  -22.1290   32.8870 P.3    25  DA25        0.2141
    485  OP1       -2.3630  -21.5560   34.1830 O.3    25  DA25       -0.4373
    486  OP2       -3.5220  -21.2760   31.9060 O.2    25  DA25       -0.5172
    487  O5'       -1.5280  -22.7220   32.1590 O.3    25  DA25       -0.3114
    488  C5'       -1.6570  -23.2550   30.8620 C.3    25  DA25        0.1811
    489  C4'       -0.5040  -24.1560   30.5390 C.3    25  DA25        0.1746
    490  O4'       -1.0280  -25.4030   30.0160 O.3    25  DA25       -0.3327
    491  C3'        0.3590  -23.5570   29.4500 C.3    25  DA25        0.1558
    492  O3'        1.4660  -22.9360   30.0960 O.3    25  DA25       -0.3138
    493  C2'        0.7410  -24.7630   28.6050 C.3    25  DA25        0.0865
    494  C1'       -0.5180  -25.6270   28.7240 C.3    25  DA25        0.2094
    495  N9        -1.7150  -25.3280   27.7090 N.ar   25  DA25       -0.2714
    496  C8        -2.8420  -24.5500   27.7580 C.ar   25  DA25        0.1815
    497  N7        -3.4030  -24.3570   26.5880 N.ar   25  DA25       -0.2193
    498  C5        -2.5880  -25.0550   25.7100 C.ar   25  DA25        0.1518
    499  C6        -2.6410  -25.2450   24.3180 C.ar   25  DA25        0.1919
    500  N6        -3.5910  -24.7260   23.5370 N.pl3  25  DA25       -0.1054
    501  N1        -1.6730  -25.9960   23.7510 N.ar   25  DA25       -0.2040
    502  C2        -0.7220  -26.5160   24.5350 C.ar   25  DA25        0.2016
    503  N3        -0.5670  -26.4090   25.8530 N.ar   25  DA25       -0.2048
    504  C4        -1.5440  -25.6570   26.3860 C.ar   25  DA25        0.1691
    505  P          2.0240  -21.4370   29.6080 P.3    26  DT26        0.2141
    506  OP1        3.0430  -20.8130   30.4810 O.3    26  DT26       -0.4373
    507  OP2        0.9780  -20.6030   28.9710 O.2    26  DT26       -0.5172
    508  O5'        2.7120  -22.2150   28.3860 O.3    26  DT26       -0.3114
    509  C5'        3.9120  -22.9480   28.5940 C.3    26  DT26        0.1811
    510  C4'        4.3290  -23.7440   27.3800 C.3    26  DT26        0.1746
    511  O4'        3.2160  -24.5630   26.9300 O.3    26  DT26       -0.3327
    512  C3'        4.7410  -22.9540   26.1420 C.3    26  DT26        0.1558
    513  O3'        6.0740  -22.4640   26.1790 O.3    26  DT26       -0.3138
    514  C2'        4.5150  -23.9720   25.0310 C.3    26  DT26        0.0866
    515  C1'        3.2600  -24.6940   25.5260 C.3    26  DT26        0.2106
    516  N1         2.0310  -24.0850   24.9670 N.ar   26  DT26       -0.2559
    517  C2         1.6110  -24.5300   23.7280 C.ar   26  DT26        0.3545
    518  O2         2.1760  -25.4190   23.1150 O.2    26  DT26       -0.2443
    519  N3         0.5010  -23.8940   23.2280 N.ar   26  DT26       -0.1533
    520  C4        -0.2160  -22.8810   23.8290 C.ar   26  DT26        0.2804
    521  O4        -1.1940  -22.4090   23.2540 O.2    26  DT26       -0.2654
    522  C5         0.2830  -22.4740   25.1120 C.ar   26  DT26        0.0534
    523  C6         1.3610  -23.0750   25.6220 C.ar   26  DT26        0.0824
    524  C7        -0.4290  -21.3770   25.8470 C.3    26  DT26        0.0377
    525  P          6.5770  -21.2200   25.1480 P.3    27  DT27        0.2141
    526  OP1        7.5450  -20.3060   25.7960 O.3    27  DT27       -0.4373
    527  OP2        5.5640  -20.6450   24.2360 O.2    27  DT27       -0.5172
    528  O5'        7.3570  -22.3820   24.3700 O.3    27  DT27       -0.3114
    529  C5'        7.9130  -22.0870   23.1080 C.3    27  DT27        0.1811
    530  C4'        7.3000  -22.9010   21.9810 C.3    27  DT27        0.1746
    531  O4'        5.9740  -23.4070   22.2760 O.3    27  DT27       -0.3327
    532  C3'        7.0180  -22.1330   20.7010 C.3    27  DT27        0.1558
    533  O3'        8.2080  -21.6770   20.0890 O.3    27  DT27       -0.3138
    534  C2'        6.2470  -23.2050   19.9330 C.3    27  DT27        0.0866
    535  C1'        5.2660  -23.5490   21.0480 C.3    27  DT27        0.2106
    536  N1         4.1050  -22.6120   20.9940 N.ar   27  DT27       -0.2559
    537  C2         3.1950  -22.4630   19.9640 C.ar   27  DT27        0.3545
    538  O2         3.4130  -22.8380   18.8260 O.2    27  DT27       -0.2443
    539  N3         2.0150  -21.8540   20.3150 N.ar   27  DT27       -0.1533
    540  C4         1.6600  -21.3900   21.5650 C.ar   27  DT27        0.2804
    541  O4         0.5610  -20.8650   21.7260 O.2    27  DT27       -0.2654
    542  C5         2.6580  -21.5800   22.5800 C.ar   27  DT27        0.0534
    543  C6         3.8140  -22.1690   22.2660 C.ar   27  DT27        0.0824
    544  C7         2.3670  -21.1070   23.9740 C.3    27  DT27        0.0377
    545  P          8.6020  -20.0500   20.1790 P.3    28  DA28        0.2141
    546  OP1       10.0520  -19.9290   19.9010 O.2    28  DA28       -0.5172
    547  OP2        7.8650  -19.0100   20.9310 O.3    28  DA28       -0.4373
    548  O5'        7.8210  -20.1640   18.7920 O.3    28  DA28       -0.3114
    549  C5'        8.4750  -20.9490   17.8090 C.3    28  DA28        0.1811
    550  C4'        7.5840  -21.1550   16.6190 C.3    28  DA28        0.1746
    551  O4'        6.3130  -21.6950   17.0640 O.3    28  DA28       -0.3327
    552  C3'        7.1850  -19.8960   15.8740 C.3    28  DA28        0.1558
    553  O3'        8.1930  -19.3960   15.0170 O.3    28  DA28       -0.3138
    554  C2'        5.9290  -20.3580   15.1510 C.3    28  DA28        0.0865
    555  C1'        5.2770  -21.1830   16.2560 C.3    28  DA28        0.2094
    556  N9         4.3910  -20.3490   17.0190 N.ar   28  DA28       -0.2714
    557  C8         4.6330  -20.0690   18.3380 C.ar   28  DA28        0.1815
    558  N7         3.5970  -19.5750   18.9730 N.ar   28  DA28       -0.2193
    559  C5         2.6070  -19.5260   18.0040 C.ar   28  DA28        0.1518
    560  C6         1.2680  -19.0990   18.0400 C.ar   28  DA28        0.1919
    561  N6         0.6740  -18.6200   19.1360 N.pl3  28  DA28       -0.1054
    562  N1         0.5530  -19.1810   16.8980 N.ar   28  DA28       -0.2040
    563  C2         1.1490  -19.6610   15.8010 C.ar   28  DA28        0.2016
    564  N3         2.3970  -20.0940   15.6430 N.ar   28  DA28       -0.2048
    565  C4         3.0820  -19.9990   16.7950 C.ar   28  DA28        0.1691
    566  P          8.3050  -17.8400   14.9140 P.3    29  DC29        0.2141
    567  OP1        9.7830  -17.8120   15.1250 O.2    29  DC29       -0.5172
    568  OP2        7.4620  -16.7970   15.5490 O.3    29  DC29       -0.4373
    569  O5'        7.8930  -17.9920   13.3730 O.3    29  DC29       -0.3114
    570  C5'        7.3210  -16.8960   12.6720 C.3    29  DC29        0.1811
    571  C4'        5.9590  -17.2490   12.0940 C.3    29  DC29        0.1746
    572  O4'        5.0930  -17.8170   13.1200 O.3    29  DC29       -0.3327
    573  C3'        5.2040  -15.9980   11.6630 C.3    29  DC29        0.1558
    574  O3'        5.6250  -15.4310   10.4320 O.3    29  DC29       -0.3138
    575  C2'        3.7280  -16.3840   11.7580 C.3    29  DC29        0.0866
    576  C1'        3.7520  -17.3520   12.9350 C.3    29  DC29        0.2106
    577  N1         3.2800  -16.6750   14.0360 N.ar   29  DC29       -0.2556
    578  C2         1.9480  -16.2740   14.1930 C.ar   29  DC29        0.3531
    579  O2         1.1690  -16.3990   13.2330 O.2    29  DC29       -0.2443
    580  N3         1.5490  -15.7630   15.3820 N.ar   29  DC29       -0.1739
    581  C4         2.4210  -15.6460   16.3840 C.ar   29  DC29        0.1759
    582  N4         1.9830  -15.1370   17.5380 N.pl3  29  DC29       -0.1070
    583  C5         3.7750  -16.0470   16.2450 C.ar   29  DC29        0.0566
    584  C6         4.1650  -16.5510   15.0690 C.ar   29  DC29        0.0849
    585  P          5.6100  -13.9270   10.2730 P.3    30  DC30        0.2141
    586  OP1        6.1750  -13.6390    8.9260 O.2    30  DC30       -0.5172
    587  OP2        6.1710  -13.2630   11.4770 O.3    30  DC30       -0.4373
    588  O5'        4.0490  -13.6310   10.2710 O.3    30  DC30       -0.3114
    589  C5'        3.2110  -14.1770    9.2650 C.3    30  DC30        0.1811
    590  C4'        1.8120  -13.6720    9.4530 C.3    30  DC30        0.1746
    591  O4'        1.2500  -14.2660   10.6500 O.3    30  DC30       -0.3327
    592  C3'        1.7310  -12.1770    9.7090 C.3    30  DC30        0.1558
    593  O3'        1.7350  -11.4580    8.4870 O.3    30  DC30       -0.3138
    594  C2'        0.4120  -12.0510   10.4550 C.3    30  DC30        0.0866
    595  C1'        0.4510  -13.3110   11.3240 C.3    30  DC30        0.2106
    596  N1         1.0370  -13.0410   12.6600 N.ar   30  DC30       -0.2556
    597  C2         0.2010  -12.5360   13.6640 C.ar   30  DC30        0.3531
    598  O2        -1.0080  -12.3900   13.4170 O.2    30  DC30       -0.2443
    599  N3         0.7330  -12.2220   14.8690 N.ar   30  DC30       -0.1739
    600  C4         2.0370  -12.3940   15.0880 C.ar   30  DC30        0.1759
    601  N4         2.5170  -12.0700   16.2910 N.pl3  30  DC30       -0.1070
    602  C5         2.9010  -12.9040   14.0840 C.ar   30  DC30        0.0566
    603  C6         2.3710  -13.2130   12.8960 C.ar   30  DC30        0.0849
    604  P          2.3790   -9.9940    8.4540 P.3    31  DT31        0.2141
    605  OP1        2.3580   -9.9270    6.9730 O.2    31  DT31       -0.5172
    606  OP2        3.6630   -9.8250    9.1730 O.3    31  DT31       -0.4373
    607  O5'        1.3150   -8.9450    9.0090 O.3    31  DT31       -0.3114
    608  C5'        0.0090   -8.8950    8.4420 C.3    31  DT31        0.1811
    609  C4'       -1.0260   -8.5530    9.4910 C.3    31  DT31        0.1746
    610  O4'       -0.9650   -9.5070   10.5800 O.3    31  DT31       -0.3327
    611  C3'       -0.8850   -7.2150   10.1950 C.3    31  DT31        0.1558
    612  O3'       -1.4260   -6.1740    9.3910 O.3    31  DT31       -0.3138
    613  C2'       -1.7380   -7.4260   11.4410 C.3    31  DT31        0.0866
    614  C1'       -1.4680   -8.8970   11.7560 C.3    31  DT31        0.2106
    615  N1        -0.5590   -9.0600   12.8020 N.ar   31  DT31       -0.2559
    616  C2        -0.8670   -8.9720   14.1460 C.ar   31  DT31        0.3545
    617  O2        -1.9580   -8.6170   14.5560 O.2    31  DT31       -0.2443
    618  N3         0.1540   -9.3150   15.0000 N.ar   31  DT31       -0.1533
    619  C4         1.4230   -9.7280   14.6520 C.ar   31  DT31        0.2804
    620  O4         2.2330  -10.0030   15.5340 O.2    31  DT31       -0.2654
    621  C5         1.6650   -9.7930   13.2380 C.ar   31  DT31        0.0534
    622  C6         0.6910   -9.4650   12.3860 C.ar   31  DT31        0.0824
    623  C7         3.0170  -10.2310   12.7580 C.3    31  DT31        0.0377
    624  P         -0.5840   -4.5390    9.2190 P.3    32  DT32        0.2141
    625  OP1       -0.6580   -3.7390    7.9760 O.2    32  DT32       -0.5172
    626  OP2        0.7260   -5.0210    9.7240 O.3    32  DT32       -0.4373
    627  O5'       -1.3040   -3.7220   10.3790 O.3    32  DT32       -0.3114
    628  C5'       -1.5270   -4.4390   11.5540 C.3    32  DT32        0.1811
    629  C4'       -2.5590   -3.7680   12.4130 C.3    32  DT32        0.1746
    630  O4'       -3.0840   -4.7870   13.2870 O.3    32  DT32       -0.3327
    631  C3'       -1.9530   -2.7050   13.3120 C.3    32  DT32        0.1558
    632  O3'       -2.3650   -1.4260   12.8800 O.3    32  DT32       -0.3138
    633  C2'       -2.4810   -3.0380   14.7050 C.3    32  DT32        0.0866
    634  C1'       -2.6500   -4.5410   14.6070 C.3    32  DT32        0.2106
    635  N1        -1.4960   -5.4100   15.0500 N.ar   32  DT32       -0.2559
    636  C2        -1.5770   -5.9790   16.3070 C.ar   32  DT32        0.3545
    637  O2        -2.6320   -6.1450   16.8940 O.2    32  DT32       -0.2443
    638  N3        -0.3730   -6.3490   16.8560 N.ar   32  DT32       -0.1533
    639  C4         0.8760   -6.2100   16.2880 C.ar   32  DT32        0.2804
    640  O4         1.8670   -6.5920   16.9050 O.2    32  DT32       -0.2654
    641  C5         0.8770   -5.6100   14.9840 C.ar   32  DT32        0.0534
    642  C6        -0.2790   -5.2410   14.4260 C.ar   32  DT32        0.0824
    643  C7         2.1880   -5.4150   14.2820 C.3    32  DT32        0.0377
    644  P         -1.4700   -0.0130   13.3840 P.3    33  DA33        0.2141
    645  OP1       -2.1010    1.2740   13.0550 O.3    33  DA33       -0.4373
    646  OP2       -0.3830   -0.5790   12.5540 O.2    33  DA33       -0.5172
    647  O5'       -1.0020    0.0980   14.8830 O.3    33  DA33       -0.3114
    648  C5'       -1.3260    1.2790   15.6220 C.3    33  DA33        0.1811
    649  C4'       -0.7160    1.1960   17.0230 C.3    33  DA33        0.1746
    650  O4'       -0.3710   -0.1630   17.3140 O.3    33  DA33       -0.3327
    651  C3'        0.6510    1.8540   17.1020 C.3    33  DA33        0.1558
    652  O3'        0.5340    3.1890   17.2950 O.3    33  DA33       -0.3138
    653  C2'        1.3730    1.1700   18.2450 C.3    33  DA33        0.0865
    654  C1'        0.8400   -0.2000   18.0230 C.3    33  DA33        0.2094
    655  N9         1.8530   -1.0100   17.2380 N.ar   33  DA33       -0.2714
    656  C8         1.6480   -1.4950   15.9730 C.ar   33  DA33        0.1815
    657  N7         2.5400   -2.3790   15.5930 N.ar   33  DA33       -0.2193
    658  C5         3.3900   -2.4810   16.6830 C.ar   33  DA33        0.1518
    659  C6         4.5420   -3.2540   16.9160 C.ar   33  DA33        0.1919
    660  N6         5.0530   -4.1050   16.0240 N.pl3  33  DA33       -0.1054
    661  N1         5.1560   -3.1180   18.1110 N.ar   33  DA33       -0.2040
    662  C2         4.6420   -2.2650   19.0040 C.ar   33  DA33        0.2016
    663  N3         3.5680   -1.4870   18.9010 N.ar   33  DA33       -0.2048
    664  C4         2.9810   -1.6430   17.7030 C.ar   33  DA33        0.1691
    665  P          1.1020    3.9260   16.2900 P.3    34  DT34        0.2141
    666  OP1        0.7420    5.3600   16.4050 O.3    34  DT34       -0.4373
    667  OP2        1.2750    3.3240   14.9500 O.2    34  DT34       -0.5172
    668  O5'        2.4460    3.6790   17.1040 O.3    34  DT34       -0.3114
    669  C5'        2.5420    4.0710   18.4690 C.3    34  DT34        0.1811
    670  C4'        3.9560    3.9220   18.9510 C.3    34  DT34        0.1746
    671  O4'        4.2410    2.5220   19.2040 O.3    34  DT34       -0.3327
    672  C3'        5.0080    4.3170   17.9370 C.3    34  DT34        0.1558
    673  O3'        5.2170    5.7140   17.8580 O.3    34  DT34       -0.3138
    674  C2'        6.2240    3.5770   18.4570 C.3    34  DT34        0.0866
    675  C1'        5.5920    2.2430   18.8600 C.3    34  DT34        0.2106
    676  N1         5.5670    1.2860   17.6570 N.ar   34  DT34       -0.2559
    677  C2         6.7170    0.5430   17.4660 C.ar   34  DT34        0.3545
    678  O2         7.6840    0.6140   18.2030 O.2    34  DT34       -0.2443
    679  N3         6.6950   -0.2900   16.3740 N.ar   34  DT34       -0.1533
    680  C4         5.6620   -0.4510   15.4740 C.ar   34  DT34        0.2804
    681  O4         5.7900   -1.2400   14.5410 O.2    34  DT34       -0.2654
    682  C5         4.5040    0.3550   15.7400 C.ar   34  DT34        0.0534
    683  C6         4.4980    1.1740   16.7950 C.ar   34  DT34        0.0824
    684  C7         3.3260    0.2510   14.8170 C.3    34  DT34        0.0377
    685  P          5.9190    6.4320   16.3610 P.3    35  DA35        0.2141
    686  OP1        5.6520    7.8800   16.1780 O.3    35  DA35       -0.4373
    687  OP2        5.1230    5.4450   15.6110 O.2    35  DA35       -0.5172
    688  O5'        7.4470    6.0980   16.0460 O.3    35  DA35       -0.3114
    689  C5'        8.5060    6.8800   16.6060 C.3    35  DA35        0.1811
    690  C4'        9.7700    6.0500   16.7380 C.3    35  DA35        0.1746
    691  O4'        9.4320    4.6620   16.9920 O.3    35  DA35       -0.3327
    692  C3'       10.7120    5.9740   15.5490 C.3    35  DA35        0.1558
    693  O3'       11.5620    7.1060   15.4830 O.3    35  DA35       -0.3138
    694  C2'       11.5090    4.7100   15.8530 C.3    35  DA35        0.0865
    695  C1'       10.4370    3.8180   16.4580 C.3    35  DA35        0.2094
    696  N9         9.8240    2.9430   15.3930 N.ar   35  DA35       -0.2714
    697  C8         8.5900    3.0940   14.8160 C.ar   35  DA35        0.1815
    698  N7         8.2940    2.1560   13.9480 N.ar   35  DA35       -0.2193
    699  C5         9.4100    1.3340   13.9540 C.ar   35  DA35        0.1518
    700  C6         9.7230    0.1590   13.2490 C.ar   35  DA35        0.1919
    701  N6         8.9030   -0.4140   12.3650 N.pl3  35  DA35       -0.1054
    702  N1        10.9220   -0.4140   13.4870 N.ar   35  DA35       -0.2040
    703  C2        11.7430    0.1590   14.3750 C.ar   35  DA35        0.2016
    704  N3        11.5600    1.2610   15.0990 N.ar   35  DA35       -0.2048
    705  C4        10.3610    1.8070   14.8390 C.ar   35  DA35        0.1691
    706  P         12.1860    7.4340   14.2380 P.3    36  DC36        0.2141
    707  OP1       12.2110    8.8930   13.9330 O.3    36  DC36       -0.4373
    708  OP2       11.0980    6.6110   13.6520 O.2    36  DC36       -0.5172
    709  O5'       13.5950    6.7890   13.8170 O.3    36  DC36       -0.3114
    710  C5'       14.8340    7.4840   13.8300 C.3    36  DC36        0.1811
    711  C4'       15.9300    6.4470   13.7890 C.3    36  DC36        0.1746
    712  O4'       15.4480    5.2180   14.3800 O.3    36  DC36       -0.3327
    713  C3'       16.2640    5.8770   12.4270 C.3    36  DC36        0.1558
    714  O3'       16.9990    6.7440   11.6190 O.3    36  DC36       -0.3138
    715  C2'       17.0980    4.6570   12.7860 C.3    36  DC36        0.0866
    716  C1'       16.2160    4.1220   13.8950 C.3    36  DC36        0.2106
    717  N1        15.3220    3.1540   13.4730 N.ar   36  DC36       -0.2556
    718  C2        15.6990    1.8700   13.0630 C.ar   36  DC36        0.3531
    719  O2        16.9030    1.5650   13.0830 O.2    36  DC36       -0.2443
    720  N3        14.7430    1.0000   12.6560 N.ar   36  DC36       -0.1739
    721  C4        13.4620    1.3710   12.6500 C.ar   36  DC36        0.1759
    722  N4        12.5560    0.4810   12.2410 N.pl3  36  DC36       -0.1070
    723  C5        13.0600    2.6680   13.0620 C.ar   36  DC36        0.0566
    724  C6        14.0060    3.5230   13.4630 C.ar   36  DC36        0.0849
    725  P         16.8660    6.4970   10.0610 P.3    37  DC37        0.2141
    726  OP1       17.4250    7.7470    9.5040 O.2    37  DC37       -0.5172
    727  OP2       15.4960    6.0590    9.6700 O.3    37  DC37       -0.4373
    728  O5'       17.8730    5.3090    9.7190 O.3    37  DC37       -0.3114
    729  C5'       19.2840    5.5190    9.7500 C.3    37  DC37        0.1811
    730  C4'       20.0250    4.1990    9.7920 C.3    37  DC37        0.1746
    731  O4'       19.3320    3.2790   10.6800 O.3    37  DC37       -0.3327
    732  C3'       20.1550    3.3920    8.5090 C.3    37  DC37        0.1558
    733  O3'       21.1960    3.8960    7.6730 O.3    37  DC37       -0.3138
    734  C2'       20.5300    2.0280    9.0690 C.3    37  DC37        0.0866
    735  C1'       19.6080    1.9470   10.2850 C.3    37  DC37        0.2106
    736  N1        18.2750    1.3510    9.9370 N.ar   37  DC37       -0.2556
    737  C2        18.1410   -0.0400    9.8510 C.ar   37  DC37        0.3531
    738  O2        19.1560   -0.7470    9.9740 O.2    37  DC37       -0.2443
    739  N3        16.9140   -0.5720    9.6360 N.ar   37  DC37       -0.1739
    740  C4        15.8540    0.2260    9.5090 C.ar   37  DC37        0.1759
    741  N4        14.6650   -0.3430    9.2980 N.pl3  37  DC37       -0.1070
    742  C5        15.9690    1.6380    9.5930 C.ar   37  DC37        0.0566
    743  C6        17.1820    2.1590    9.8060 C.ar   37  DC37        0.0849
    744  P         21.0550    3.6800    6.3950 P.3    38  DA38        0.2141
    745  OP1       21.9770    4.7910    6.1090 O.3    38  DA38       -0.4373
    746  OP2       19.6160    3.8050    6.0250 O.2    38  DA38       -0.5172
    747  O5'       21.6070    2.3510    5.7140 O.3    38  DA38       -0.3114
    748  C5'       22.8850    1.8370    6.0510 C.3    38  DA38        0.1811
    749  C4'       22.9350    0.3490    5.8120 C.3    38  DA38        0.1746
    750  O4'       22.0970   -0.3370    6.7750 O.3    38  DA38       -0.3327
    751  C3'       22.4340   -0.1230    4.4560 C.3    38  DA38        0.1558
    752  O3'       23.4110    0.0370    3.4350 O.3    38  DA38       -0.3138
    753  C2'       22.0490   -1.5750    4.7360 C.3    38  DA38        0.0865
    754  C1'       21.5330   -1.4860    6.1650 C.3    38  DA38        0.2094
    755  N9        20.1410   -1.2930    6.2260 N.ar   38  DA38       -0.2714
    756  C8        19.5160   -0.0780    6.3290 C.ar   38  DA38        0.1815
    757  N7        18.2080   -0.1480    6.2550 N.ar   38  DA38       -0.2193
    758  C5        17.9570   -1.5010    6.0900 C.ar   38  DA38        0.1518
    759  C6        16.7640   -2.2310    5.9480 C.ar   38  DA38        0.1919
    760  N6        15.5510   -1.6730    5.9510 N.pl3  38  DA38       -0.1054
    761  N1        16.8620   -3.5690    5.8020 N.ar   38  DA38       -0.2040
    762  C2        18.0780   -4.1280    5.8000 C.ar   38  DA38        0.2016
    763  N3        19.2700   -3.5480    5.9260 N.ar   38  DA38       -0.2048
    764  C4        19.1380   -2.2180    6.0690 C.ar   38  DA38        0.1691
    765  P         22.9780   -0.1020    1.7870 P.3    39  DG39        0.2141
    766  OP1       24.1250    0.2970    0.9390 O.2    39  DG39       -0.5172
    767  OP2       21.8180    0.8080    1.9590 O.3    39  DG39       -0.4373
    768  O5'       22.3590   -1.4750    1.2250 O.3    39  DG39       -0.3114
    769  C5'       23.1530   -2.6520    1.1130 C.3    39  DG39        0.1811
    770  C4'       22.3270   -3.8950    0.8640 C.3    39  DG39        0.1746
    771  O4'       21.4160   -4.1300    1.9700 O.3    39  DG39       -0.3327
    772  C3'       21.4170   -3.8710   -0.3530 C.3    39  DG39        0.1558
    773  O3'       22.0960   -4.1290   -1.5670 O.3    39  DG39       -0.3138
    774  C2'       20.3910   -4.9400   -0.0030 C.3    39  DG39        0.0865
    775  C1'       20.2180   -4.7110    1.4970 C.3    39  DG39        0.2094
    776  N9        19.0610   -3.8500    1.7790 N.ar   39  DG39       -0.2713
    777  C8        19.0280   -2.4950    2.0060 C.ar   39  DG39        0.1816
    778  N7        17.8190   -2.0270    2.1530 N.ar   39  DG39       -0.2173
    779  C5        17.0030   -3.1350    2.0180 C.ar   39  DG39        0.1748
    780  C6        15.5910   -3.2550    2.0780 C.ar   39  DG39        0.3023
    781  O6        14.7540   -2.3640    2.2720 O.2    39  DG39       -0.2633
    782  N1        15.1710   -4.5680    1.8850 N.ar   39  DG39       -0.1709
    783  C2        16.0080   -5.6350    1.6620 C.ar   39  DG39        0.2606
    784  N2        15.4180   -6.8260    1.5000 N.pl3  39  DG39       -0.0859
    785  N3        17.3220   -5.5390    1.6030 N.ar   39  DG39       -0.1918
    786  C4        17.7520   -4.2730    1.7860 C.ar   39  DG39        0.1722
    787  P         21.3590   -3.8100   -2.9940 P.3    40  DC40        0.2141
    788  OP1       22.4010   -4.0420   -4.0250 O.2    40  DC40       -0.5172
    789  OP2       20.9360   -2.4210   -2.6830 O.3    40  DC40       -0.4373
    790  O5'       20.0670   -4.6640   -3.3730 O.3    40  DC40       -0.3114
    791  C5'       20.0760   -6.0840   -3.2320 C.3    40  DC40        0.1811
    792  C4'       18.6660   -6.6190   -3.1230 C.3    40  DC40        0.1746
    793  O4'       18.0170   -6.0870   -1.9380 O.3    40  DC40       -0.3327
    794  C3'       17.7260   -6.2350   -4.2500 C.3    40  DC40        0.1558
    795  O3'       17.9120   -7.0860   -5.3720 O.3    40  DC40       -0.3138
    796  C2'       16.3580   -6.4360   -3.6060 C.3    40  DC40        0.0866
    797  C1'       16.6220   -5.9710   -2.1710 C.3    40  DC40        0.2106
    798  N1        16.1740   -4.7170   -1.9220 N.ar   40  DC40       -0.2556
    799  C2        14.8150   -4.4320   -1.7480 C.ar   40  DC40        0.3531
    800  O2        13.9950   -5.3640   -1.8120 O.2    40  DC40       -0.2443
    801  N3        14.4330   -3.1520   -1.5190 N.ar   40  DC40       -0.1739
    802  C4        15.3480   -2.1840   -1.4600 C.ar   40  DC40        0.1759
    803  N4        14.9260   -0.9380   -1.2310 N.pl3  40  DC40       -0.1070
    804  C5        16.7300   -2.4520   -1.6330 C.ar   40  DC40        0.0566
    805  C6        17.1020   -3.7170   -1.8600 C.ar   40  DC40        0.0849
    806  P         17.3570   -6.6240   -6.6890 P.3    41  DT41        0.2141
    807  OP1       17.9700   -7.6000   -7.6180 O.2    41  DT41       -0.5172
    808  OP2       18.0360   -5.3360   -6.4240 O.3    41  DT41       -0.4373
    809  O5'       15.8610   -6.3370   -7.1820 O.3    41  DT41       -0.3114
    810  C5'       15.1290   -7.3990   -7.7880 C.3    41  DT41        0.1811
    811  C4'       13.6880   -7.4360   -7.3110 C.3    41  DT41        0.1746
    812  O4'       13.5770   -7.0040   -5.9320 O.3    41  DT41       -0.3327
    813  C3'       12.7570   -6.4850   -8.0390 C.3    41  DT41        0.1558
    814  O3'       12.4310   -7.0050   -9.3150 O.3    41  DT41       -0.3138
    815  C2'       11.5800   -6.4620   -7.0720 C.3    41  DT41        0.0866
    816  C1'       12.3340   -6.3440   -5.7530 C.3    41  DT41        0.2106
    817  N1        12.5810   -5.0220   -5.3840 N.ar   41  DT41       -0.2559
    818  C2        11.5250   -4.2400   -4.9550 C.ar   41  DT41        0.3545
    819  O2        10.3860   -4.6600   -4.8530 O.2    41  DT41       -0.2443
    820  N3        11.8510   -2.9410   -4.6490 N.ar   41  DT41       -0.1533
    821  C4        13.0990   -2.3580   -4.7270 C.ar   41  DT41        0.2804
    822  O4        13.2360   -1.1770   -4.4170 O.2    41  DT41       -0.2654
    823  C5        14.1420   -3.2340   -5.1810 C.ar   41  DT41        0.0534
    824  C6        13.8530   -4.5020   -5.4850 C.ar   41  DT41        0.0824
    825  C7        15.5360   -2.6930   -5.3000 C.3    41  DT41        0.0377
    826  P         12.7620   -6.3560  -10.4320 P.3    42  DT42        0.2141
    827  OP1       13.1310   -7.2850  -11.5230 O.2    42  DT42       -0.5172
    828  OP2       13.6410   -5.2180  -10.0810 O.3    42  DT42       -0.4373
    829  O5'       11.3590   -5.6780  -10.7840 O.3    42  DT42       -0.3114
    830  C5'       10.2540   -6.5400  -10.9930 C.3    42  DT42        0.1811
    831  C4'        9.1930   -6.3560   -9.9380 C.3    42  DT42        0.1746
    832  O4'        9.7800   -5.8820   -8.6990 O.3    42  DT42       -0.3327
    833  C3'        8.1300   -5.3170  -10.2440 C.3    42  DT42        0.1558
    834  O3'        7.1480   -5.8130  -11.1320 O.3    42  DT42       -0.3138
    835  C2'        7.5800   -4.9770   -8.8650 C.3    42  DT42        0.0866
    836  C1'        8.8240   -5.1210   -7.9890 C.3    42  DT42        0.2106
    837  N1         9.0850   -3.9220   -7.7250 N.ar   42  DT42       -0.2559
    838  C2         8.5810   -3.1610   -6.6880 C.ar   42  DT42        0.3545
    839  O2         7.4640   -3.3210   -6.2290 O.2    42  DT42       -0.2443
    840  N3         9.4340   -2.1980   -6.2060 N.ar   42  DT42       -0.1533
    841  C4        10.7130   -1.9270   -6.6470 C.ar   42  DT42        0.2804
    842  O4        11.3590   -1.0290   -6.1120 O.2    42  DT42       -0.2654
    843  C5        11.1640   -2.7590   -7.7260 C.ar   42  DT42        0.0534
    844  C6        10.3550   -3.7030   -8.2140 C.ar   42  DT42        0.0824
    845  C7        12.5420   -2.5410   -8.2760 C.3    42  DT42        0.0377
    846  P          6.1530   -4.7390  -12.0800 P.3    43  DA43        0.2141
    847  OP1        6.6770   -3.5070  -12.7170 O.2    43  DA43       -0.5172
    848  OP2        5.4710   -4.6420  -10.7670 O.3    43  DA43       -0.4373
    849  O5'        5.1790   -5.4470  -13.1210 O.3    43  DA43       -0.3114
    850  C5'        5.6660   -5.8040  -14.4200 C.3    43  DA43        0.1811
    851  C4'        4.6880   -6.6990  -15.1390 C.3    43  DA43        0.1746
    852  O4'        4.3750   -7.8530  -14.3250 O.3    43  DA43       -0.3327
    853  C3'        3.3300   -6.1200  -15.4700 C.3    43  DA43        0.1558
    854  O3'        3.4030   -5.3320  -16.6400 O.3    43  DA43       -0.3138
    855  C2'        2.4830   -7.3700  -15.6830 C.3    43  DA43        0.0865
    856  C1'        3.0950   -8.3420  -14.6780 C.3    43  DA43        0.2094
    857  N9         2.2200   -8.5020  -13.5820 N.ar   43  DA43       -0.2714
    858  C8         2.4010   -8.1760  -12.2640 C.ar   43  DA43        0.1815
    859  N7         1.3980   -8.5180  -11.4910 N.ar   43  DA43       -0.2193
    860  C5         0.4950   -9.1080  -12.3620 C.ar   43  DA43        0.1518
    861  C6        -0.7740   -9.6810  -12.1640 C.ar   43  DA43        0.1919
    862  N6        -1.3740   -9.7560  -10.9730 N.pl3  43  DA43       -0.1054
    863  N1        -1.4110  -10.1800  -13.2440 N.ar   43  DA43       -0.2040
    864  C2        -0.8080  -10.1060  -14.4360 C.ar   43  DA43        0.2016
    865  N3         0.3800   -9.5930  -14.7470 N.ar   43  DA43       -0.2048
    866  C4         0.9870   -9.1040  -13.6530 C.ar   43  DA43        0.1691
    867  P          2.6260   -4.1230  -16.6520 P.3    44  DT44        0.2141
    868  OP1        2.8090   -3.1260  -17.7220 O.2    44  DT44       -0.5172
    869  OP2        2.0320   -3.6860  -15.3700 O.3    44  DT44       -0.4373
    870  O5'        1.7870   -5.3350  -17.2320 O.3    44  DT44       -0.3114
    871  C5'        1.3710   -5.3800  -18.5430 C.3    44  DT44        0.1811
    872  C4'       -0.0220   -5.9100  -18.5140 C.3    44  DT44        0.1746
    873  O4'       -0.1250   -6.9900  -17.5660 O.3    44  DT44       -0.3327
    874  C3'       -1.0250   -4.9420  -17.9660 C.3    44  DT44        0.1558
    875  O3'       -1.2840   -3.9080  -18.9080 O.3    44  DT44       -0.3138
    876  C2'       -2.1970   -5.8800  -17.7020 C.3    44  DT44        0.0866
    877  C1'       -1.4660   -7.0710  -17.1180 C.3    44  DT44        0.2106
    878  N1        -1.4910   -7.1000  -15.6920 N.ar   44  DT44       -0.2559
    879  C2        -2.6220   -7.5060  -15.0100 C.ar   44  DT44        0.3545
    880  O2        -3.6380   -7.8780  -15.5690 O.2    44  DT44       -0.2443
    881  N3        -2.5210   -7.4600  -13.6400 N.ar   44  DT44       -0.1533
    882  C4        -1.4280   -7.0570  -12.9020 C.ar   44  DT44        0.2804
    883  O4        -1.4880   -7.0710  -11.6740 O.2    44  DT44       -0.2654
    884  C5        -0.2940   -6.6500  -13.6830 C.ar   44  DT44        0.0534
    885  C6        -0.3650   -6.6850  -15.0160 C.ar   44  DT44        0.0824
    886  C7         0.9450   -6.1940  -12.9710 C.3    44  DT44        0.0377
    887  P         -2.1500   -2.5050  -18.4430 P.3    45  DT45        0.2141
    888  OP1       -2.3340   -1.4310  -19.4430 O.2    45  DT45       -0.5172
    889  OP2       -1.4690   -2.1980  -17.1630 O.3    45  DT45       -0.4373
    890  O5'       -3.5720   -3.1530  -18.1170 O.3    45  DT45       -0.3114
    891  C5'       -4.4710   -3.5350  -19.1780 C.3    45  DT45        0.1811
    892  C4'       -5.7480   -4.1180  -18.6120 C.3    45  DT45        0.1746
    893  O4'       -5.4080   -5.2470  -17.7670 O.3    45  DT45       -0.3327
    894  C3'       -6.5810   -3.2160  -17.7090 C.3    45  DT45        0.1558
    895  O3'       -7.4440   -2.3530  -18.4480 O.3    45  DT45       -0.3138
    896  C2'       -7.3710   -4.2310  -16.8960 C.3    45  DT45        0.0866
    897  C1'       -6.3160   -5.3180  -16.6800 C.3    45  DT45        0.2106
    898  N1        -5.5830   -5.1230  -15.4210 N.ar   45  DT45       -0.2559
    899  C2        -6.2050   -5.5300  -14.2550 C.ar   45  DT45        0.3545
    900  O2        -7.3220   -6.0150  -14.2330 O.2    45  DT45       -0.2443
    901  N3        -5.4690   -5.3450  -13.1100 N.ar   45  DT45       -0.1533
    902  C4        -4.2030   -4.8080  -13.0140 C.ar   45  DT45        0.2804
    903  O4        -3.6700   -4.7070  -11.9120 O.2    45  DT45       -0.2654
    904  C5        -3.6250   -4.4090  -14.2670 C.ar   45  DT45        0.0534
    905  C6        -4.3180   -4.5770  -15.3960 C.ar   45  DT45        0.0824
    906  C7        -2.2490   -3.8120  -14.2680 C.3    45  DT45        0.0377
    907  P         -7.9040   -0.9590  -17.8440 P.3    46  DC46        0.2141
    908  OP1       -8.7440   -0.1010  -18.6930 O.2    46  DC46       -0.5172
    909  OP2       -6.7820   -0.1700  -17.2830 O.3    46  DC46       -0.4373
    910  O5'       -8.7480   -1.6410  -16.6640 O.3    46  DC46       -0.3114
    911  C5'      -10.1150   -1.9840  -16.9630 C.3    46  DC46        0.1811
    912  C4'      -10.8790   -2.1750  -15.6800 C.3    46  DC46        0.1746
    913  O4'      -10.2850   -3.2630  -14.9200 O.3    46  DC46       -0.3327
    914  C3'      -10.8550   -1.0260  -14.7000 C.3    46  DC46        0.1558
    915  O3'      -11.7920    0.0090  -15.0280 O.3    46  DC46       -0.3138
    916  C2'      -11.1440   -1.6870  -13.3830 C.3    46  DC46        0.0866
    917  C1'      -10.3500   -2.9680  -13.5280 C.3    46  DC46        0.2106
    918  N1        -8.9570   -2.7820  -12.9720 N.ar   46  DC46       -0.2556
    919  C2        -8.8250   -2.8550  -11.5810 C.ar   46  DC46        0.3531
    920  O2        -9.8360   -3.0830  -10.8950 O.2    46  DC46       -0.2443
    921  N3        -7.6030   -2.6730  -11.0240 N.ar   46  DC46       -0.1739
    922  C4        -6.5460   -2.4290  -11.8000 C.ar   46  DC46        0.1759
    923  N4        -5.3630   -2.2570  -11.2060 N.pl3  46  DC46       -0.1070
    924  C5        -6.6590   -2.3510  -13.2110 C.ar   46  DC46        0.0566
    925  C6        -7.8670   -2.5310  -13.7570 C.ar   46  DC46        0.0849
    926  P        -11.4230    1.6960  -14.7190 P.3    47  DA47        0.2141
    927  OP1      -12.5310    2.4780  -15.3160 O.2    47  DA47       -0.5172
    928  OP2      -10.0300    2.1290  -14.9400 O.3    47  DA47       -0.4373
    929  O5'      -11.6160    1.5760  -13.1400 O.3    47  DA47       -0.3114
    930  C5'      -12.8490    1.0870  -12.5590 C.3    47  DA47        0.1811
    931  C4'      -12.6680    0.8110  -11.0750 C.3    47  DA47        0.1746
    932  O4'      -11.6350   -0.1950  -10.8960 O.3    47  DA47       -0.3327
    933  C3'      -12.1950    1.9790  -10.2200 C.3    47  DA47        0.1558
    934  O3'      -13.2640    2.8310   -9.8290 O.3    47  DA47       -0.3138
    935  C2'      -11.5610    1.2740   -9.0300 C.3    47  DA47        0.0865
    936  C1'      -10.9040    0.0760   -9.7130 C.3    47  DA47        0.2094
    937  N9        -9.5410    0.2860  -10.1200 N.ar   47  DA47       -0.2714
    938  C8        -8.9770    0.6330  -11.3200 C.ar   47  DA47        0.1815
    939  N7        -7.6800    0.8220  -11.2610 N.ar   47  DA47       -0.2193
    940  C5        -7.3710    0.5830   -9.9310 C.ar   47  DA47        0.1518
    941  C6        -6.1580    0.6180   -9.2210 C.ar   47  DA47        0.1919
    942  N6        -4.9830    0.9200   -9.7780 N.pl3  47  DA47       -0.1054
    943  N1        -6.1960    0.3290   -7.9020 N.ar   47  DA47       -0.2040
    944  C2        -7.3730    0.0260   -7.3450 C.ar   47  DA47        0.2016
    945  N3        -8.5780   -0.0400   -7.9070 N.ar   47  DA47       -0.2048
    946  C4        -8.5070    0.2530   -9.2160 C.ar   47  DA47        0.1691
    947  P        -12.9800    4.3370   -9.5590 P.3    48  DA48        0.2141
    948  OP1      -14.2850    4.9710   -9.2760 O.3    48  DA48       -0.4373
    949  OP2      -11.9450    5.0900  -10.3240 O.2    48  DA48       -0.5172
    950  O5'      -12.4100    3.9020   -8.1440 O.3    48  DA48       -0.3114
    951  C5'      -13.3020    3.5200   -7.1180 C.3    48  DA48        0.1811
    952  C4'      -12.5390    3.2690   -5.8570 C.3    48  DA48        0.1746
    953  O4'      -11.5370    2.2610   -6.1300 O.3    48  DA48       -0.3327
    954  C3'      -11.7200    4.4430   -5.3630 C.3    48  DA48        0.1558
    955  O3'      -12.5110    5.3930   -4.6670 O.3    48  DA48       -0.3138
    956  C2'      -10.6530    3.7540   -4.5250 C.3    48  DA48        0.0865
    957  C1'      -10.3560    2.5410   -5.3990 C.3    48  DA48        0.2094
    958  N9        -9.2750    2.8220   -6.3470 N.ar   48  DA48       -0.2714
    959  C8        -9.4040    3.1010   -7.6830 C.ar   48  DA48        0.1815
    960  N7        -8.2600    3.1890   -8.3180 N.ar   48  DA48       -0.2193
    961  C5        -7.3140    2.9530   -7.3330 C.ar   48  DA48        0.1518
    962  C6        -5.9090    2.9070   -7.3620 C.ar   48  DA48        0.1919
    963  N6        -5.1860    3.1050   -8.4660 N.pl3  48  DA48       -0.1054
    964  N1        -5.2670    2.6480   -6.2030 N.ar   48  DA48       -0.2040
    965  C2        -5.9930    2.4490   -5.0970 C.ar   48  DA48        0.2016
    966  N3        -7.3150    2.4660   -4.9450 N.ar   48  DA48       -0.2048
    967  C4        -7.9240    2.7270   -6.1140 C.ar   48  DA48        0.1691
    968  P        -12.4250    6.9580   -5.1670 P.3    49  DT49        0.2141
    969  OP1      -13.5430    7.7950   -4.6410 O.3    49  DT49       -0.4373
    970  OP2      -11.9500    7.2010   -6.5540 O.2    49  DT49       -0.5172
    971  O5'      -11.1440    7.1280   -4.2420 O.3    49  DT49       -0.3114
    972  C5'      -11.2440    7.1350   -2.8270 C.3    49  DT49        0.1811
    973  C4'       -9.8850    7.3780   -2.2480 C.3    49  DT49        0.1746
    974  O4'       -9.0490    6.2730   -2.6520 O.3    49  DT49       -0.3327
    975  C3'       -9.1860    8.6350   -2.7660 C.3    49  DT49        0.1558
    976  O3'       -9.4920    9.7550   -1.9270 O.3    49  DT49       -0.3138
    977  C2'       -7.7100    8.2610   -2.6920 C.3    49  DT49        0.0866
    978  C1'       -7.7490    6.7440   -2.9190 C.3    49  DT49        0.2106
    979  N1        -7.4280    6.3300   -4.3290 N.ar   49  DT49       -0.2559
    980  C2        -6.0990    6.2180   -4.6920 C.ar   49  DT49        0.3545
    981  O2        -5.1860    6.2380   -3.8850 O.2    49  DT49       -0.2443
    982  N3        -5.8750    6.0840   -6.0400 N.ar   49  DT49       -0.1533
    983  C4        -6.8240    6.0500   -7.0400 C.ar   49  DT49        0.2804
    984  O4        -6.4680    5.9230   -8.2090 O.2    49  DT49       -0.2654
    985  C5        -8.1800    6.1730   -6.5840 C.ar   49  DT49        0.0534
    986  C6        -8.4270    6.3040   -5.2780 C.ar   49  DT49        0.0824
    987  C7        -9.2860    6.1480   -7.5970 C.3    49  DT49        0.0377
    988  P         -9.4260   11.3320   -2.4490 P.3    50  DT50        0.2141
    989  OP1      -10.1450   12.4600   -1.8120 O.3    50  DT50       -0.4373
    990  OP2       -9.2630   11.2870   -3.9310 O.2    50  DT50       -0.5172
    991  O5'       -7.9840   11.2800   -1.8050 O.3    50  DT50       -0.3114
    992  C5'       -6.9970   12.1700   -2.2590 C.3    50  DT50        0.1811
    993  C4'       -5.6330   11.7180   -1.8380 C.3    50  DT50        0.1746
    994  O4'       -5.4600   10.3060   -2.0980 O.3    50  DT50       -0.3327
    995  C3'       -4.5510   12.3830   -2.6430 C.3    50  DT50        0.1558
    996  O3'       -4.3280   13.6810   -2.1360 O.3    50  DT50       -0.3138
    997  C2'       -3.3960   11.4000   -2.5230 C.3    50  DT50        0.0866
    998  C1'       -4.1460   10.0660   -2.5790 C.3    50  DT50        0.2106
    999  N1        -4.3950    9.5210   -3.9130 N.ar   50  DT50       -0.2559
   1000  C2        -3.3420    8.9580   -4.6080 C.ar   50  DT50        0.3545
   1001  O2        -2.2390    8.7860   -4.1180 O.2    50  DT50       -0.2443
   1002  N3        -3.6250    8.6000   -5.9040 N.ar   50  DT50       -0.1533
   1003  C4        -4.8290    8.7470   -6.5610 C.ar   50  DT50        0.2804
   1004  O4        -4.9300    8.3760   -7.7280 O.2    50  DT50       -0.2654
   1005  C5        -5.8730    9.3400   -5.7730 C.ar   50  DT50        0.0534
   1006  C6        -5.6250    9.6970   -4.5100 C.ar   50  DT50        0.0824
   1007  C7        -7.2210    9.5420   -6.3990 C.3    50  DT50        0.0377
   1008  P         -4.2110   15.1200   -3.2600 P.3    51  DA51        0.2141
   1009  OP1       -4.1900   16.4120   -2.5390 O.3    51  DA51       -0.4373
   1010  OP2       -5.0730   14.9150   -4.4470 O.2    51  DA51       -0.5172
   1011  O5'       -2.7430   14.7910   -3.8030 O.3    51  DA51       -0.3114
   1012  C5'       -1.6730   14.4450   -2.9370 C.3    51  DA51        0.1811
   1013  C4'       -0.5090   13.9200   -3.7350 C.3    51  DA51        0.1746
   1014  O4'       -0.8100   12.5800   -4.1960 O.3    51  DA51       -0.3327
   1015  C3'       -0.1900   14.6920   -5.0100 C.3    51  DA51        0.1558
   1016  O3'        0.6010   15.8500   -4.7840 O.3    51  DA51       -0.3138
   1017  C2'        0.4830   13.6480   -5.8960 C.3    51  DA51        0.0865
   1018  C1'       -0.2200   12.3580   -5.4630 C.3    51  DA51        0.2094
   1019  N9        -1.2580   11.9530   -6.3490 N.ar   51  DA51       -0.2714
   1020  C8        -2.6090   12.1800   -6.3290 C.ar   51  DA51        0.1815
   1021  N7        -3.2540   11.6290   -7.3310 N.ar   51  DA51       -0.2193
   1022  C5        -2.2570   10.9970   -8.0580 C.ar   51  DA51        0.1518
   1023  C6        -2.2880   10.2310   -9.2370 C.ar   51  DA51        0.1919
   1024  N6        -3.4060    9.9630   -9.9150 N.pl3  51  DA51       -0.1054
   1025  N1        -1.1160    9.7460   -9.6990 N.ar   51  DA51       -0.2040
   1026  C2         0.0040   10.0140   -9.0180 C.ar   51  DA51        0.2016
   1027  N3         0.1590   10.7190   -7.8990 N.ar   51  DA51       -0.2048
   1028  C4        -1.0230   11.1880   -7.4660 C.ar   51  DA51        0.1691
   1029  P          0.6530   17.0540   -5.8960 P.3    52  DC52        0.2141
   1030  OP1        1.6270   18.0370   -5.3690 O.3    52  DC52       -0.4373
   1031  OP2       -0.7290   17.5200   -6.1720 O.2    52  DC52       -0.5172
   1032  O5'        1.3000   16.3980   -7.2080 O.3    52  DC52       -0.3114
   1033  C5'        2.7300   16.3900   -7.1700 C.3    52  DC52        0.1811
   1034  C4'        3.3530   15.5610   -8.2400 C.3    52  DC52        0.1746
   1035  O4'        2.7020   14.2880   -8.2540 O.3    52  DC52       -0.3327
   1036  C3'        3.1430   16.0860   -9.6390 C.3    52  DC52        0.1558
   1037  O3'        3.9220   17.2470  -10.0210 O.3    52  DC52       -0.3138
   1038  C2'        3.2730   14.8460  -10.4880 C.3    52  DC52        0.0866
   1039  C1'        2.6340   13.8260   -9.6120 C.3    52  DC52        0.2106
   1040  N1         1.3010   13.6130  -10.0980 N.ar   52  DC52       -0.2556
   1041  C2         1.0530   12.8600  -11.2520 C.ar   52  DC52        0.3531
   1042  O2         2.0170   12.3770  -11.8690 O.2    52  DC52       -0.2443
   1043  N3        -0.2260   12.6830  -11.6620 N.ar   52  DC52       -0.1739
   1044  C4        -1.2300   13.2210  -10.9680 C.ar   52  DC52        0.1759
   1045  N4        -2.4730   13.0190  -11.4100 N.pl3  52  DC52       -0.1070
   1046  C5        -1.0000   13.9870   -9.7960 C.ar   52  DC52        0.0566
   1047  C6         0.2650   14.1600   -9.3950 C.ar   52  DC52        0.0849
   1048  P          3.3160   18.5130  -10.9730 P.3    53  DG53        0.2141
   1049  OP1        4.2000   19.6760  -10.7300 O.2    53  DG53       -0.5172
   1050  OP2        1.8750   18.6040  -10.6320 O.3    53  DG53       -0.4373
   1051  O5'        3.4680   18.0590  -12.4950 O.3    53  DG53       -0.3114
   1052  C5'        4.7600   17.8230  -13.0460 C.3    53  DG53        0.1811
   1053  C4'        4.6830   16.9120  -14.2560 C.3    53  DG53        0.1746
   1054  O4'        4.0830   15.6420  -13.8670 O.3    53  DG53       -0.3327
   1055  C3'        3.8040   17.3840  -15.4070 C.3    53  DG53        0.1558
   1056  O3'        4.4410   18.3260  -16.2650 O.3    53  DG53       -0.3138
   1057  C2'        3.4820   16.0780  -16.1240 C.3    53  DG53        0.0865
   1058  C1'        3.3090   15.1230  -14.9430 C.3    53  DG53        0.2094
   1059  N9         1.8740   14.9930  -14.5310 N.ar   53  DG53       -0.2713
   1060  C8         1.1900   15.5320  -13.4680 C.ar   53  DG53        0.1816
   1061  N7        -0.0880   15.2680  -13.4910 N.ar   53  DG53       -0.2173
   1062  C5        -0.2610   14.5100  -14.6340 C.ar   53  DG53        0.1748
   1063  C6        -1.4310   13.9320  -15.1900 C.ar   53  DG53        0.3023
   1064  O6        -2.5900   13.9810  -14.7580 O.2    53  DG53       -0.2633
   1065  N1        -1.1610   13.2390  -16.3670 N.ar   53  DG53       -0.1709
   1066  C2         0.0830   13.1180  -16.9380 C.ar   53  DG53        0.2606
   1067  N2         0.1460   12.4100  -18.0740 N.pl3  53  DG53       -0.0859
   1068  N3         1.1790   13.6500  -16.4340 N.ar   53  DG53       -0.1918
   1069  C4         0.9410   14.3280  -15.2910 C.ar   53  DG53        0.1722
   1070  P          3.5450   19.3340  -17.1660 P.3    54  DT54        0.2141
   1071  OP1        4.1700   20.6720  -17.2620 O.2    54  DT54       -0.5172
   1072  OP2        2.4370   19.0730  -16.2180 O.3    54  DT54       -0.4373
   1073  O5'        2.9430   18.9570  -18.5940 O.3    54  DT54       -0.3114
   1074  C5'        3.8030   18.9730  -19.7220 C.3    54  DT54        0.1811
   1075  C4'        3.1740   18.1990  -20.8430 C.3    54  DT54        0.1746
   1076  O4'        2.7210   16.9310  -20.3170 O.3    54  DT54       -0.3327
   1077  C3'        1.9090   18.8000  -21.4320 C.3    54  DT54        0.1558
   1078  O3'        2.1460   19.8120  -22.3860 O.3    54  DT54       -0.3138
   1079  C2'        1.2250   17.5910  -22.0350 C.3    54  DT54        0.0866
   1080  C1'        1.5460   16.5300  -20.9870 C.3    54  DT54        0.2106
   1081  N1         0.4500   16.3380  -20.0170 N.ar   54  DT54       -0.2559
   1082  C2        -0.5780   15.4800  -20.3570 C.ar   54  DT54        0.3545
   1083  O2        -0.6210   14.8810  -21.4170 O.2    54  DT54       -0.2443
   1084  N3        -1.5620   15.3460  -19.4070 N.ar   54  DT54       -0.1533
   1085  C4        -1.6190   15.9720  -18.1790 C.ar   54  DT54        0.2804
   1086  O4        -2.5680   15.7510  -17.4310 O.2    54  DT54       -0.2654
   1087  C5        -0.5160   16.8480  -17.9000 C.ar   54  DT54        0.0534
   1088  C6         0.4540   16.9960  -18.8070 C.ar   54  DT54        0.0824
   1089  C7        -0.4870   17.5760  -16.5890 C.3    54  DT54        0.0377
   1090  P          1.0360   20.6430  -22.5890 P.3    55  DC55        0.2141
   1091  OP1        1.4640   21.5590  -23.6680 O.2    55  DC55       -0.5172
   1092  OP2        0.3800   21.1560  -21.3660 O.3    55  DC55       -0.4373
   1093  O5'       -0.0250   19.6100  -23.1940 O.3    55  DC55       -0.3114
   1094  C5'        0.2170   19.1840  -24.5220 C.3    55  DC55        0.1811
   1095  C4'       -0.5680   17.9540  -24.8770 C.3    55  DC55        0.1746
   1096  O4'       -0.4540   16.9720  -23.8190 O.3    55  DC55       -0.3327
   1097  C3'       -2.0660   18.1330  -25.0110 C.3    55  DC55        0.1558
   1098  O3'       -2.4430   18.7640  -26.2150 O.3    55  DC55       -0.3138
   1099  C2'       -2.5480   16.6970  -24.8970 C.3    55  DC55        0.0866
   1100  C1'       -1.6290   16.1880  -23.7870 C.3    55  DC55        0.2106
   1101  N1        -2.3600   16.3750  -22.4870 N.ar   55  DC55       -0.2556
   1102  C2        -3.3850   15.5000  -22.1090 C.ar   55  DC55        0.3531
   1103  O2        -3.7440   14.6190  -22.9090 O.2    55  DC55       -0.2443
   1104  N3        -3.9530   15.6380  -20.8870 N.ar   55  DC55       -0.1739
   1105  C4        -3.5350   16.5990  -20.0620 C.ar   55  DC55        0.1759
   1106  N4        -4.1250   16.6970  -18.8680 N.pl3  55  DC55       -0.1070
   1107  C5        -2.4980   17.4960  -20.4260 C.ar   55  DC55        0.0566
   1108  C6        -1.9400   17.3560  -21.6340 C.ar   55  DC55        0.0849
   1109  P         -3.2200   20.0170  -25.9990 P.3    56  DT56        0.2141
   1110  OP1       -3.4040   20.7600  -27.2720 O.2    56  DT56       -0.5172
   1111  OP2       -3.2020   20.7660  -24.7200 O.3    56  DT56       -0.4373
   1112  O5'       -4.3780   18.9370  -25.8660 O.3    56  DT56       -0.3114
   1113  C5'       -4.7720   18.1520  -26.9730 C.3    56  DT56        0.1811
   1114  C4'       -6.0990   17.5340  -26.6800 C.3    56  DT56        0.1746
   1115  O4'       -5.9320   16.5110  -25.6710 O.3    56  DT56       -0.3327
   1116  C3'       -7.0840   18.4980  -26.0560 C.3    56  DT56        0.1558
   1117  O3'       -7.7660   19.2670  -27.0200 O.3    56  DT56       -0.3138
   1118  C2'       -8.0290   17.5670  -25.3180 C.3    56  DT56        0.0866
   1119  C1'       -7.0510   16.5140  -24.7950 C.3    56  DT56        0.2106
   1120  N1        -6.5350   16.8560  -23.4350 N.ar   56  DT56       -0.2559
   1121  C2        -7.3190   16.4060  -22.3890 C.ar   56  DT56        0.3545
   1122  O2        -8.2700   15.6620  -22.5450 O.2    56  DT56       -0.2443
   1123  N3        -6.9480   16.8620  -21.1470 N.ar   56  DT56       -0.1533
   1124  C4        -5.8960   17.7040  -20.8520 C.ar   56  DT56        0.2804
   1125  O4        -5.6880   18.0250  -19.6850 O.2    56  DT56       -0.2654
   1126  C5        -5.1310   18.1280  -21.9910 C.ar   56  DT56        0.0534
   1127  C6        -5.4690   17.7000  -23.2100 C.ar   56  DT56        0.0824
   1128  C7        -3.9650   19.0470  -21.7740 C.3    56  DT56        0.0377
   1129  P         -8.7350   20.6040  -26.5260 P.3    57  DG57        0.2141
   1130  OP1       -9.1570   21.3490  -27.7440 O.2    57  DG57       -0.5172
   1131  OP2       -7.8820   21.2750  -25.5050 O.3    57  DG57       -0.4373
   1132  O5'      -10.0120   19.9910  -25.7800 O.3    57  DG57       -0.3114
   1133  C5'      -10.9730   19.1880  -26.4880 C.3    57  DG57        0.1811
   1134  C4'      -11.9660   18.5640  -25.5340 C.3    57  DG57        0.1746
   1135  O4'      -11.2410   17.7720  -24.5620 O.3    57  DG57       -0.3327
   1136  C3'      -12.7680   19.5510  -24.7100 C.3    57  DG57        0.1558
   1137  O3'      -13.9240   20.0140  -25.4060 O.3    57  DG57       -0.3138
   1138  C2'      -13.1060   18.7500  -23.4620 C.3    57  DG57        0.0865
   1139  C1'      -11.8490   17.8930  -23.2870 C.3    57  DG57        0.2094
   1140  N9       -10.8730   18.4650  -22.3530 N.ar   57  DG57       -0.2713
   1141  C8        -9.8970   19.3900  -22.6360 C.ar   57  DG57        0.1816
   1142  N7        -9.3040   19.8560  -21.5710 N.ar   57  DG57       -0.2173
   1143  C5        -9.9200   19.2000  -20.5210 C.ar   57  DG57        0.1748
   1144  C6        -9.7040   19.2910  -19.1220 C.ar   57  DG57        0.3023
   1145  O6        -8.8900   19.9990  -18.5170 O.2    57  DG57       -0.2633
   1146  N1       -10.5520   18.4480  -18.4080 N.ar   57  DG57       -0.1709
   1147  C2       -11.4920   17.6200  -18.9730 C.ar   57  DG57        0.2606
   1148  N2       -12.2160   16.8800  -18.1220 N.pl3  57  DG57       -0.0859
   1149  N3       -11.7050   17.5250  -20.2710 N.ar   57  DG57       -0.1918
   1150  C4       -10.8930   18.3350  -20.9840 C.ar   57  DG57        0.1722
   1151  P        -14.9050   21.1600  -24.7070 P.3    58  DC58        0.2141
   1152  OP1      -16.1750   21.5970  -25.3310 O.2    58  DC58       -0.5172
   1153  OP2      -13.7680   22.0970  -24.5710 O.3    58  DC58       -0.4373
   1154  O5'      -15.1640   20.7010  -23.1920 O.3    58  DC58       -0.3114
   1155  C5'      -16.1470   19.7390  -22.8420 C.3    58  DC58        0.1811
   1156  C4'      -16.5530   19.8810  -21.4000 C.3    58  DC58        0.1746
   1157  O4'      -15.4900   19.3840  -20.5470 O.3    58  DC58       -0.3327
   1158  C3'      -16.7650   21.3150  -20.9340 C.3    58  DC58        0.1558
   1159  O3'      -18.0130   21.8910  -21.2990 O.3    58  DC58       -0.3138
   1160  C2'      -16.5310   21.2130  -19.4330 C.3    58  DC58        0.0866
   1161  C1'      -15.3770   20.2110  -19.4090 C.3    58  DC58        0.2106
   1162  N1       -13.9390   20.8440  -19.4990 N.ar   58  DC58       -0.2556
   1163  C2       -13.4370   21.3730  -18.3040 C.ar   58  DC58        0.3531
   1164  O2       -14.1210   21.2690  -17.2710 O.2    58  DC58       -0.2443
   1165  N3       -12.2270   21.9810  -18.3080 N.ar   58  DC58       -0.1739
   1166  C4       -11.5290   22.0710  -19.4410 C.ar   58  DC58        0.1759
   1167  N4       -10.3420   22.6790  -19.3970 N.pl3  58  DC58       -0.1070
   1168  C5       -12.0200   21.5410  -20.6620 C.ar   58  DC58        0.0566
   1169  C6       -13.2150   20.9410  -20.6540 C.ar   58  DC58        0.0849
   1170  P        -17.9840   23.2570  -21.7360 P.3    59  DA59        0.2141
   1171  OP1      -19.4060   22.8220  -21.8110 O.3    59  DA59       -0.4373
   1172  OP2      -17.3590   23.9070  -22.9210 O.2    59  DA59       -0.5172
   1173  O5'      -17.7660   24.2410  -20.4930 O.3    59  DA59       -0.3114
   1174  C5'      -17.7670   23.7280  -19.1650 C.3    59  DA59        0.1811
   1175  C4'      -17.0310   24.6540  -18.2170 C.3    59  DA59        0.1746
   1176  O4'      -15.6320   24.7740  -18.5840 O.3    59  DA59       -0.3327
   1177  C3'      -17.5150   26.0870  -18.1100 C.3    59  DA59        0.1558
   1178  O3'      -18.6350   26.1760  -17.2420 O.3    59  DA59       -0.3138
   1179  C2'      -16.2950   26.8160  -17.5540 C.3    59  DA59        0.0865
   1180  C1'      -15.1450   26.0510  -18.2060 C.3    59  DA59        0.2094
   1181  N9       -14.7770   26.8170  -19.3880 N.ar   59  DA59       -0.2714
   1182  C8       -15.1040   26.4770  -20.6750 C.ar   59  DA59        0.1815
   1183  N7       -14.5420   27.2400  -21.5820 N.ar   59  DA59       -0.2193
   1184  C5       -13.7970   28.1430  -20.8400 C.ar   59  DA59        0.1518
   1185  C6       -12.9670   29.2150  -21.2120 C.ar   59  DA59        0.1919
   1186  N6       -12.7410   29.5700  -22.4790 N.pl3  59  DA59       -0.1054
   1187  N1       -12.3700   29.9180  -20.2250 N.ar   59  DA59       -0.2040
   1188  C2       -12.5970   29.5600  -18.9560 C.ar   59  DA59        0.2016
   1189  N3       -13.3540   28.5730  -18.4830 N.ar   59  DA59       -0.2048
   1190  C4       -13.9330   27.8960  -19.4880 C.ar   59  DA59        0.1691
   1191  P        -19.6060   27.6620  -17.1560 P.3    60  DC60        0.2141
   1192  OP1      -20.9680   27.5980  -16.5570 O.3    60  DC60       -0.4373
   1193  OP2      -19.4110   27.3050  -18.5920 O.2    60  DC60       -0.5172
   1194  O5'      -19.0300   29.1310  -16.9030 O.3    60  DC60       -0.3114
   1195  C5'      -18.8660   29.6440  -15.5600 C.3    60  DC60        0.1811
   1196  C4'      -17.6810   30.5990  -15.4790 C.3    60  DC60        0.1746
   1197  O4'      -16.6200   30.1480  -16.3680 O.3    60  DC60       -0.3327
   1198  C3'      -17.8880   32.0530  -15.8850 C.3    60  DC60        0.1558
   1199  O3'      -18.4360   32.8530  -14.8510 O.3    60  DC60       -0.3138
   1200  C2'      -16.4690   32.5050  -16.1840 C.3    60  DC60        0.0866
   1201  C1'      -15.8790   31.2600  -16.8390 C.3    60  DC60        0.2106
   1202  N1       -15.9230   31.2810  -18.2670 N.ar   60  DC60       -0.2556
   1203  C2       -15.0700   32.1030  -19.0130 C.ar   60  DC60        0.3531
   1204  O2       -14.3580   32.9260  -18.4130 O.2    60  DC60       -0.2443
   1205  N3       -15.0460   31.9780  -20.3610 N.ar   60  DC60       -0.1739
   1206  C4       -15.8290   31.0810  -20.9620 C.ar   60  DC60        0.1759
   1207  N4       -15.7720   30.9940  -22.2930 N.pl3  60  DC60       -0.1070
   1208  C5       -16.7000   30.2390  -20.2250 C.ar   60  DC60        0.0566
   1209  C6       -16.7200   30.3650  -18.8930 C.ar   60  DC60        0.0849
   1210  P        -18.7920   34.2520  -15.2070 P.3    61  DA61        0.2141
   1211  OP1      -19.5980   35.0720  -14.2730 O.3    61  DA61       -0.4373
   1212  OP2      -18.8120   34.5350  -16.6620 O.2    61  DA61       -0.5172
   1213  O5'      -17.2440   34.3170  -14.7970 O.3    61  DA61       -0.3114
   1214  C5'      -16.3690   35.2980  -15.3400 C.3    61  DA61        0.1811
   1215  C4'      -15.2400   35.6250  -14.3930 C.3    61  DA61        0.1746
   1216  O4'      -15.7930   36.0620  -13.1260 O.3    61  DA61       -0.3327
   1217  C3'      -14.2970   34.4780  -14.0490 C.3    61  DA61        0.1558
   1218  O3'      -13.2320   34.3570  -14.9810 O.3    61  DA61       -0.3138
   1219  C2'      -13.8100   34.8430  -12.6530 C.3    61  DA61        0.0865
   1220  C1'      -15.0220   35.5610  -12.0580 C.3    61  DA61        0.2094
   1221  N9       -15.8630   34.6860  -11.2250 N.ar   61  DA61       -0.2714
   1222  C8       -17.0440   34.0810  -11.5670 C.ar   61  DA61        0.1815
   1223  N7       -17.5680   33.3590  -10.6050 N.ar   61  DA61       -0.2193
   1224  C5       -16.6690   33.4980   -9.5600 C.ar   61  DA61        0.1518
   1225  C6       -16.6490   32.9780   -8.2530 C.ar   61  DA61        0.1919
   1226  N6       -17.6000   32.1810   -7.7610 N.pl3  61  DA61       -0.1054
   1227  N1       -15.6060   33.3100   -7.4620 N.ar   61  DA61       -0.2040
   1228  C2       -14.6550   34.1100   -7.9570 C.ar   61  DA61        0.2016
   1229  N3       -14.5630   34.6610   -9.1650 N.ar   61  DA61       -0.2048
   1230  C4       -15.6130   34.3110   -9.9270 C.ar   61  DA61        0.1691
   1231  P        -12.6160   33.3300  -15.0370 P.3    62  DT62        0.2141
   1232  OP1      -11.3450   33.4600  -15.7850 O.2    62  DT62       -0.5172
   1233  OP2      -13.6460   32.3500  -15.4510 O.3    62  DT62       -0.4373
   1234  O5'      -12.2930   32.9410  -13.5210 O.3    62  DT62       -0.3114
   1235  C5'      -11.3920   33.7420  -12.7710 C.3    62  DT62        0.1811
   1236  C4'      -11.2670   33.2580  -11.3490 C.3    62  DT62        0.1746
   1237  O4'      -12.5400   33.3920  -10.6680 O.3    62  DT62       -0.3327
   1238  C3'      -10.8880   31.7950  -11.1720 C.3    62  DT62        0.1558
   1239  O3'       -9.4850   31.6030  -11.2750 O.3    62  DT62       -0.3138
   1240  C2'      -11.4470   31.4670   -9.7940 C.3    62  DT62        0.0866
   1241  C1'      -12.6910   32.3560   -9.7220 C.3    62  DT62        0.2106
   1242  N1       -14.0270   31.6460   -9.9740 N.ar   62  DT62       -0.2559
   1243  C2       -14.5970   31.0130   -8.8870 C.ar   62  DT62        0.3545
   1244  O2       -14.1730   31.1310   -7.7510 O.2    62  DT62       -0.2443
   1245  N3       -15.6890   30.2300   -9.1770 N.ar   62  DT62       -0.1533
   1246  C4       -16.2540   30.0220  -10.4180 C.ar   62  DT62        0.2804
   1247  O4       -17.2350   29.2900  -10.5200 O.2    62  DT62       -0.2654
   1248  C5       -15.6050   30.7130  -11.4960 C.ar   62  DT62        0.0534
   1249  C6       -14.5420   31.4810  -11.2420 C.ar   62  DT62        0.0824
   1250  C7       -16.1460   30.5500  -12.8860 C.3    62  DT62        0.0377
   1251  P         -8.7230   30.3780  -11.3710 P.3    63  DA63        0.2141
   1252  OP1       -7.6300   31.3330  -11.0780 O.3    63  DA63       -0.4373
   1253  OP2       -8.9270   29.8900  -12.7560 O.2    63  DA63       -0.5172
   1254  O5'       -8.5750   29.1350  -10.3930 O.3    63  DA63       -0.3114
   1255  C5'       -8.9130   29.3030   -9.0060 C.3    63  DA63        0.1811
   1256  C4'      -10.1360   28.4900   -8.6320 C.3    63  DA63        0.1746
   1257  O4'      -11.2620   28.7430   -9.5180 O.3    63  DA63       -0.3327
   1258  C3'       -9.9900   26.9900   -8.7200 C.3    63  DA63        0.1558
   1259  O3'       -9.2050   26.5100   -7.6480 O.3    63  DA63       -0.3138
   1260  C2'      -11.4440   26.5380   -8.6460 C.3    63  DA63        0.0865
   1261  C1'      -12.1220   27.6040   -9.5110 C.3    63  DA63        0.2094
   1262  N9       -12.2780   27.1680  -10.8030 N.ar   63  DA63       -0.2714
   1263  C8       -11.5990   27.7110  -11.8630 C.ar   63  DA63        0.1815
   1264  N7       -12.0060   27.2740  -13.0310 N.ar   63  DA63       -0.2193
   1265  C5       -13.0200   26.3830  -12.7170 C.ar   63  DA63        0.1518
   1266  C6       -13.8570   25.5840  -13.5150 C.ar   63  DA63        0.1919
   1267  N6       -13.8000   25.5550  -14.8490 N.pl3  63  DA63       -0.1054
   1268  N1       -14.7650   24.8060  -12.8870 N.ar   63  DA63       -0.2040
   1269  C2       -14.8220   24.8360  -11.5510 C.ar   63  DA63        0.2016
   1270  N3       -14.0910   25.5460  -10.6940 N.ar   63  DA63       -0.2048
   1271  C4       -13.1980   26.3070  -11.3490 C.ar   63  DA63        0.1691
   1272  P         -8.1200   25.4070   -8.0080 P.3    64  DC64        0.2141
   1273  OP1       -7.3850   25.3470   -6.7290 O.3    64  DC64       -0.4373
   1274  OP2       -7.4000   25.6870   -9.2660 O.2    64  DC64       -0.5172
   1275  O5'       -8.9190   24.0490   -8.2100 O.3    64  DC64       -0.3114
   1276  C5'       -9.7430   23.5650   -7.1760 C.3    64  DC64        0.1811
   1277  C4'      -10.8540   22.7140   -7.7550 C.3    64  DC64        0.1746
   1278  O4'      -11.5880   23.4740   -8.7450 O.3    64  DC64       -0.3327
   1279  C3'      -10.4200   21.4920   -8.5410 C.3    64  DC64        0.1558
   1280  O3'      -10.0990   20.4550   -7.6620 O.3    64  DC64       -0.3138
   1281  C2'      -11.7300   21.1650   -9.2230 C.3    64  DC64        0.0866
   1282  C1'      -12.1970   22.5620   -9.6370 C.3    64  DC64        0.2106
   1283  N1       -11.7620   23.0060  -11.0700 N.ar   64  DC64       -0.2556
   1284  C2       -12.3880   22.4300  -12.1820 C.ar   64  DC64        0.3531
   1285  O2       -13.2780   21.5830  -11.9950 O.2    64  DC64       -0.2443
   1286  N3       -12.0060   22.8100  -13.4240 N.ar   64  DC64       -0.1739
   1287  C4       -11.0450   23.7220  -13.5770 C.ar   64  DC64        0.1759
   1288  N4       -10.7010   24.0660  -14.8200 N.pl3  64  DC64       -0.1070
   1289  C5       -10.3980   24.3180  -12.4630 C.ar   64  DC64        0.0566
   1290  C6       -10.7790   23.9390  -11.2380 C.ar   64  DC64        0.0849
   1291  P         -9.2470   19.1850   -8.1900 P.3    65  DC65        0.2141
   1292  OP1       -8.4970   18.0210   -7.6720 O.3    65  DC65       -0.4373
   1293  OP2       -8.5170   20.2900   -8.8470 O.2    65  DC65       -0.5172
   1294  O5'      -10.3500   18.6400   -9.2100 O.3    65  DC65       -0.3114
   1295  C5'      -11.0270   17.4190   -8.9570 C.3    65  DC65        0.1811
   1296  C4'      -12.1210   17.2000   -9.9800 C.3    65  DC65        0.1746
   1297  O4'      -12.3600   18.4040  -10.7500 O.3    65  DC65       -0.3327
   1298  C3'      -11.7420   16.1800  -11.0280 C.3    65  DC65        0.1558
   1299  O3'      -12.0100   14.8790  -10.5670 O.3    65  DC65       -0.3138
   1300  C2'      -12.6050   16.5680  -12.2180 C.3    65  DC65        0.0866
   1301  C1'      -12.5140   18.0890  -12.1260 C.3    65  DC65        0.2106
   1302  N1       -11.3720   18.5020  -12.9940 N.ar   65  DC65       -0.2556
   1303  C2       -11.4110   18.3420  -14.3840 C.ar   65  DC65        0.3531
   1304  O2       -12.3720   17.7370  -14.8900 O.2    65  DC65       -0.2443
   1305  N3       -10.4030   18.8480  -15.1350 N.ar   65  DC65       -0.1739
   1306  C4        -9.3910   19.4880  -14.5490 C.ar   65  DC65        0.1759
   1307  N4        -8.4210   19.9700  -15.3290 N.pl3  65  DC65       -0.1070
   1308  C5        -9.3330   19.6610  -13.1420 C.ar   65  DC65        0.0566
   1309  C6       -10.3300   19.1600  -12.4040 C.ar   65  DC65        0.0849
   1310  P        -11.0270   13.6910  -11.0450 P.3    66  DA66        0.2141
   1311  OP1      -11.4640   12.5050  -10.2780 O.3    66  DA66       -0.4373
   1312  OP2       -9.6040   14.1000  -11.0290 O.2    66  DA66       -0.5172
   1313  O5'      -11.3620   13.4680  -12.5980 O.3    66  DA66       -0.3114
   1314  C5'      -12.5970   12.8680  -12.9670 C.3    66  DA66        0.1811
   1315  C4'      -12.8100   12.8090  -14.4640 C.3    66  DA66        0.1746
   1316  O4'      -12.6090   14.1180  -15.0550 O.3    66  DA66       -0.3327
   1317  C3'      -11.8720   11.9100  -15.2540 C.3    66  DA66        0.1558
   1318  O3'      -12.2260   10.5410  -15.1950 O.3    66  DA66       -0.3138
   1319  C2'      -11.9690   12.4870  -16.6600 C.3    66  DA66        0.0865
   1320  C1'      -12.0780   13.9800  -16.3570 C.3    66  DA66        0.2094
   1321  N9       -10.8080   14.6530  -16.3880 N.ar   66  DA66       -0.2714
   1322  C8       -10.1350   15.1110  -15.2860 C.ar   66  DA66        0.1815
   1323  N7        -9.0300   15.7580  -15.5720 N.ar   66  DA66       -0.2193
   1324  C5        -8.9720   15.7200  -16.9560 C.ar   66  DA66        0.1518
   1325  C6        -8.0410   16.2290  -17.8780 C.ar   66  DA66        0.1919
   1326  N6        -6.9450   16.9050  -17.5250 N.pl3  66  DA66       -0.1054
   1327  N1        -8.2790   16.0170  -19.1900 N.ar   66  DA66       -0.2040
   1328  C2        -9.3780   15.3410  -19.5430 C.ar   66  DA66        0.2016
   1329  N3       -10.3260   14.8150  -18.7700 N.ar   66  DA66       -0.2048
   1330  C4       -10.0600   15.0420  -17.4720 C.ar   66  DA66        0.1691
   1331  P        -11.1560    9.5520  -15.2820 P.3    67  DG67        0.2141
   1332  OP1      -11.4790    8.1480  -14.9350 O.2    67  DG67       -0.5172
   1333  OP2      -10.1330   10.3240  -14.5350 O.3    67  DG67       -0.4373
   1334  O5'      -10.6390    9.6020  -16.7920 O.3    67  DG67       -0.3114
   1335  C5'      -11.3470    8.9650  -17.8420 C.3    67  DG67        0.1811
   1336  C4'      -10.6250    9.1710  -19.1490 C.3    67  DG67        0.1746
   1337  O4'      -10.4330   10.5920  -19.3730 O.3    67  DG67       -0.3327
   1338  C3'       -9.2300    8.5700  -19.2370 C.3    67  DG67        0.1558
   1339  O3'       -9.2720    7.1930  -19.5930 O.3    67  DG67       -0.3138
   1340  C2'       -8.5420    9.4690  -20.2620 C.3    67  DG67        0.0865
   1341  C1'       -9.1980   10.8260  -20.0050 C.3    67  DG67        0.2094
   1342  N9        -8.4920   11.7400  -19.1890 N.ar   67  DG67       -0.2713
   1343  C8        -8.4970   11.9770  -17.8350 C.ar   67  DG67        0.1816
   1344  N7        -7.5330   12.7660  -17.4460 N.ar   67  DG67       -0.2173
   1345  C5        -6.8500   13.0710  -18.6090 C.ar   67  DG67        0.1748
   1346  C6        -5.7070   13.8850  -18.8210 C.ar   67  DG67        0.3023
   1347  O6        -5.0530   14.5200  -17.9850 O.2    67  DG67       -0.2633
   1348  N1        -5.3380   13.9230  -20.1630 N.ar   67  DG67       -0.1709
   1349  C2        -5.9890   13.2600  -21.1750 C.ar   67  DG67        0.2606
   1350  N2        -5.4850   13.4190  -22.4060 N.pl3  67  DG67       -0.0859
   1351  N3        -7.0510   12.5000  -20.9930 N.ar   67  DG67       -0.1918
   1352  C4        -7.4270   12.4470  -19.6980 C.ar   67  DG67        0.1722
   1353  P         -7.9440    6.1360  -19.5130 P.3    68  DC68        0.2141
   1354  OP1       -8.5440    4.8050  -19.2470 O.2    68  DC68       -0.5172
   1355  OP2       -7.4770    6.9820  -18.3810 O.3    68  DC68       -0.4373
   1356  O5'       -6.7240    5.9630  -20.5210 O.3    68  DC68       -0.3114
   1357  C5'       -6.6650    6.6810  -21.7480 C.3    68  DC68        0.1811
   1358  C4'       -5.2560    7.1630  -22.0060 C.3    68  DC68        0.1746
   1359  O4'       -5.2340    8.6090  -22.0400 O.3    68  DC68       -0.3327
   1360  C3'       -4.2430    6.8250  -20.9350 C.3    68  DC68        0.1558
   1361  O3'       -3.7560    5.5200  -21.0610 O.3    68  DC68       -0.3138
   1362  C2'       -3.1750    7.8730  -21.1290 C.3    68  DC68        0.0866
   1363  C1'       -4.0240    9.0840  -21.4750 C.3    68  DC68        0.2106
   1364  N1        -4.3810    9.8130  -20.1530 N.ar   68  DC68       -0.2556
   1365  C2        -3.3930   10.6430  -19.6100 C.ar   68  DC68        0.3531
   1366  O2        -2.3230   10.7820  -20.2270 O.2    68  DC68       -0.2443
   1367  N3        -3.6310   11.2670  -18.4320 N.ar   68  DC68       -0.1739
   1368  C4        -4.7940   11.0880  -17.8050 C.ar   68  DC68        0.1759
   1369  N4        -4.9830   11.7230  -16.6460 N.pl3  68  DC68       -0.1070
   1370  C5        -5.8080   10.2510  -18.3380 C.ar   68  DC68        0.0566
   1371  C6        -5.5690    9.6370  -19.5020 C.ar   68  DC68        0.0849
   1372  P         -3.4290    4.7040  -19.7090 P.3    69  DT69        0.2141
   1373  OP1       -3.2270    3.4040  -20.3770 O.2    69  DT69       -0.5172
   1374  OP2       -4.2660    4.7920  -18.4850 O.3    69  DT69       -0.4373
   1375  O5'       -2.0310    5.4530  -19.3630 O.3    69  DT69       -0.3114
   1376  C5'       -0.9000    5.3390  -20.2400 C.3    69  DT69        0.1811
   1377  C4'        0.3330    6.0320  -19.6840 C.3    69  DT69        0.1746
   1378  O4'        0.0420    7.4000  -19.4700 O.3    69  DT69       -0.3327
   1379  C3'        0.7930    5.5550  -18.3360 C.3    69  DT69        0.1558
   1380  O3'        1.6150    4.4300  -18.4560 O.3    69  DT69       -0.3138
   1381  C2'        1.5360    6.7390  -17.7740 C.3    69  DT69        0.0866
   1382  C1'        0.7210    7.8950  -18.3320 C.3    69  DT69        0.2106
   1383  N1        -0.2840    8.4790  -17.3680 N.ar   69  DT69       -0.2559
   1384  C2         0.1650    9.4270  -16.4680 C.ar   69  DT69        0.3545
   1385  O2         1.3220    9.8040  -16.4230 O.2    69  DT69       -0.2443
   1386  N3        -0.7940    9.9190  -15.6150 N.ar   69  DT69       -0.1533
   1387  C4        -2.1270    9.5670  -15.5740 C.ar   69  DT69        0.2804
   1388  O4        -2.8680   10.0980  -14.7510 O.2    69  DT69       -0.2654
   1389  C5        -2.5150    8.5770  -16.5390 C.ar   69  DT69        0.0534
   1390  C6        -1.6030    8.0810  -17.3800 C.ar   69  DT69        0.0824
   1391  C7        -3.9450    8.1270  -16.5730 C.3    69  DT69        0.0377
   1392  P          1.3920    3.4460  -17.2760 P.3    70  DT70        0.2141
   1393  OP1        2.4140    2.6080  -17.9430 O.2    70  DT70       -0.5172
   1394  OP2        0.1090    2.8320  -16.8310 O.3    70  DT70       -0.4373
   1395  O5'        2.0980    4.1420  -16.0340 O.3    70  DT70       -0.3114
   1396  C5'        3.4820    4.4290  -16.0710 C.3    70  DT70        0.1811
   1397  C4'        3.8550    5.3440  -14.9360 C.3    70  DT70        0.1746
   1398  O4'        2.9710    6.4940  -14.9220 O.3    70  DT70       -0.3327
   1399  C3'        3.6970    4.7810  -13.5350 C.3    70  DT70        0.1558
   1400  O3'        4.7860    3.9430  -13.1850 O.3    70  DT70       -0.3138
   1401  C2'        3.7010    6.0610  -12.7130 C.3    70  DT70        0.0866
   1402  C1'        2.8240    6.9540  -13.5860 C.3    70  DT70        0.2106
   1403  N1         1.4010    6.9350  -13.1580 N.ar   70  DT70       -0.2559
   1404  C2         1.0130    7.7190  -12.0880 C.ar   70  DT70        0.3545
   1405  O2         1.8020    8.3440  -11.4020 O.2    70  DT70       -0.2443
   1406  N3        -0.3390    7.7450  -11.8470 N.ar   70  DT70       -0.1533
   1407  C4        -1.3210    7.0800  -12.5530 C.ar   70  DT70        0.2804
   1408  O4        -2.4960    7.2030  -12.2160 O.2    70  DT70       -0.2654
   1409  C5        -0.8390    6.2870  -13.6480 C.ar   70  DT70        0.0534
   1410  C6         0.4710    6.2440  -13.9050 C.ar   70  DT70        0.0824
   1411  C7        -1.8300    5.5250  -14.4770 C.3    70  DT70        0.0377
   1412  P          4.7250    3.1610  -11.8580 P.3    71  DA71        0.2141
   1413  OP1        6.0030    2.3960  -11.7720 O.3    71  DA71       -0.4373
   1414  OP2        3.5080    2.5020  -12.3960 O.2    71  DA71       -0.5172
   1415  O5'        4.3270    3.6780  -10.4030 O.3    71  DA71       -0.3114
   1416  C5'        5.3230    4.1780   -9.4920 C.3    71  DA71        0.1811
   1417  C4'        4.7030    4.5000   -8.1510 C.3    71  DA71        0.1746
   1418  O4'        3.7310    5.5700   -8.2990 O.3    71  DA71       -0.3327
   1419  C3'        3.9430    3.3760   -7.4600 C.3    71  DA71        0.1558
   1420  O3'        4.8090    2.5050   -6.7310 O.3    71  DA71       -0.3138
   1421  C2'        3.0130    4.1460   -6.5320 C.3    71  DA71        0.0865
   1422  C1'        2.6710    5.3800   -7.3760 C.3    71  DA71        0.2094
   1423  N9         1.4430    5.2020   -8.1180 N.ar   71  DA71       -0.2714
   1424  C8         1.3210    4.7530   -9.4070 C.ar   71  DA71        0.1815
   1425  N7         0.0800    4.6770   -9.8260 N.ar   71  DA71       -0.2193
   1426  C5        -0.6640    5.1050   -8.7380 C.ar   71  DA71        0.1518
   1427  C6        -2.0480    5.2560   -8.5390 C.ar   71  DA71        0.1919
   1428  N6        -2.9630    4.9820   -9.4710 N.pl3  71  DA71       -0.1054
   1429  N1        -2.4620    5.7040   -7.3350 N.ar   71  DA71       -0.2040
   1430  C2        -1.5440    5.9800   -6.4010 C.ar   71  DA71        0.2016
   1431  N3        -0.2180    5.8790   -6.4700 N.ar   71  DA71       -0.2048
   1432  C4         0.1610    5.4300   -7.6780 C.ar   71  DA71        0.1691
   1433  P          4.1130    1.1670   -6.0150 P.3    72  DT72        0.2167
   1434  OP1        5.1310    0.4430   -5.2370 O.3    72  DT72       -0.4372
   1435  OP2        3.5010    0.5100   -7.1980 O.2    72  DT72       -0.5171
   1436  O5'        2.9260    1.6000   -5.0480 O.3    72  DT72       -0.2756
   1437  C5'        3.1820    2.2990   -3.8350 C.3    72  DT72        0.3270
   1438  C4'        1.9040    2.4440   -3.0420 C.3    72  DT72        0.2148
   1439  O4'        1.0240    3.3970   -3.6920 O.3    72  DT72       -0.3288
   1440  C3'        1.0710    1.1770   -2.9670 C.3    72  DT72        0.1596
   1441  O3'        1.5450    0.2830   -1.9780 O.3    72  DT72       -0.3137
   1442  C2'       -0.3290    1.7100   -2.6970 C.3    72  DT72        0.0867
   1443  C1'       -0.3310    2.9690   -3.5600 C.3    72  DT72        0.2108
   1444  N1        -0.8500    2.6690   -4.8940 N.ar   72  DT72       -0.2559
   1445  C2        -2.2160    2.7680   -5.0740 C.ar   72  DT72        0.3545
   1446  O2        -2.9750    3.1530   -4.2020 O.2    72  DT72       -0.2443
   1447  N3        -2.6670    2.3980   -6.3180 N.ar   72  DT72       -0.1533
   1448  C4        -1.9050    1.9490   -7.3770 C.ar   72  DT72        0.2804
   1449  O4        -2.4550    1.6540   -8.4350 O.2    72  DT72       -0.2654
   1450  C5        -0.4960    1.8730   -7.1110 C.ar   72  DT72        0.0534
   1451  C6        -0.0310    2.2270   -5.9100 C.ar   72  DT72        0.0824
   1452  C7         0.4180    1.3950   -8.2000 C.3    72  DT72        0.0377
   1453  P          1.3150   -1.2730   -2.1570 P.3    73  DT73        0.2141
   1454  OP1        1.9250   -2.2030   -1.1800 O.3    73  DT73       -0.4373
   1455  OP2        1.3580   -1.5630   -3.6070 O.2    73  DT73       -0.5172
   1456  O5'       -0.2430   -1.1260   -1.8220 O.3    73  DT73       -0.3114
   1457  C5'       -0.6570   -0.9960   -0.4690 C.3    73  DT73        0.1811
   1458  C4'       -2.1560   -0.8600   -0.3700 C.3    73  DT73        0.1746
   1459  O4'       -2.5890    0.1840   -1.2760 O.3    73  DT73       -0.3327
   1460  C3'       -2.9660   -2.0730   -0.7940 C.3    73  DT73        0.1558
   1461  O3'       -3.1110   -3.0260    0.2410 O.3    73  DT73       -0.3138
   1462  C2'       -4.2890   -1.4660   -1.2360 C.3    73  DT73        0.0866
   1463  C1'       -3.8300   -0.1490   -1.8580 C.3    73  DT73        0.2106
   1464  N1        -3.6540   -0.2880   -3.3360 N.ar   73  DT73       -0.2559
   1465  C2        -4.8000   -0.2630   -4.1090 C.ar   73  DT73        0.3545
   1466  O2        -5.9220   -0.2710   -3.6340 O.2    73  DT73       -0.2443
   1467  N3        -4.5850   -0.2300   -5.4650 N.ar   73  DT73       -0.1533
   1468  C4        -3.3670   -0.2200   -6.1120 C.ar   73  DT73        0.2804
   1469  O4        -3.3340   -0.1880   -7.3400 O.2    73  DT73       -0.2654
   1470  C5        -2.2250   -0.2480   -5.2410 C.ar   73  DT73        0.0534
   1471  C6        -2.4060   -0.2810   -3.9180 C.ar   73  DT73        0.0824
   1472  C7        -0.8540   -0.2400   -5.8490 C.3    73  DT73        0.0377
   1473  P         -3.1630   -4.5060   -0.1780 P.3    74  DC74        0.2141
   1474  OP1       -3.2340   -5.2670    1.1040 O.3    74  DC74       -0.4373
   1475  OP2       -2.0540   -4.8010   -1.1430 O.2    74  DC74       -0.5172
   1476  O5'       -4.5670   -4.6300   -0.9170 O.3    74  DC74       -0.3114
   1477  C5'       -5.7260   -4.0040   -0.3700 C.3    74  DC74        0.1811
   1478  C4'       -6.9440   -4.2880   -1.2270 C.3    74  DC74        0.1746
   1479  O4'       -7.1270   -3.2370   -2.2080 O.3    74  DC74       -0.3327
   1480  C3'       -6.9540   -5.5770   -2.0340 C.3    74  DC74        0.1558
   1481  O3'       -7.3230   -6.7260   -1.2870 O.3    74  DC74       -0.3138
   1482  C2'       -7.9680   -5.2600   -3.1160 C.3    74  DC74        0.0866
   1483  C1'       -7.6740   -3.7880   -3.3850 C.3    74  DC74        0.2106
   1484  N1        -6.6720   -3.6670   -4.4390 N.ar   74  DC74       -0.2556
   1485  C2        -7.0890   -3.5170   -5.7660 C.ar   74  DC74        0.3531
   1486  O2        -8.3080   -3.4980   -6.0110 O.2    74  DC74       -0.2443
   1487  N3        -6.1570   -3.3990   -6.7410 N.ar   74  DC74       -0.1739
   1488  C4        -4.8600   -3.4260   -6.4310 C.ar   74  DC74        0.1759
   1489  N4        -3.9770   -3.3050   -7.4260 N.pl3  74  DC74       -0.1070
   1490  C5        -4.4170   -3.5770   -5.0920 C.ar   74  DC74        0.0566
   1491  C6        -5.3410   -3.6940   -4.1320 C.ar   74  DC74        0.0849
   1492  P         -6.8530   -8.2580   -1.8190 P.3    75  DA75        0.2141
   1493  OP1       -7.4110   -9.1500   -0.7690 O.3    75  DA75       -0.4373
   1494  OP2       -5.4080   -8.3420   -2.1620 O.2    75  DA75       -0.5172
   1495  O5'       -7.7020   -8.4520   -3.1540 O.3    75  DA75       -0.3114
   1496  C5'       -9.1390   -8.5040   -3.1120 C.3    75  DA75        0.1811
   1497  C4'       -9.7070   -8.5540   -4.5100 C.3    75  DA75        0.1746
   1498  O4'       -9.4760   -7.2900   -5.1810 O.3    75  DA75       -0.3327
   1499  C3'       -9.1110   -9.5980   -5.4400 C.3    75  DA75        0.1558
   1500  O3'       -9.7030  -10.8790   -5.2550 O.3    75  DA75       -0.3138
   1501  C2'       -9.4000   -9.0250   -6.8250 C.3    75  DA75        0.0865
   1502  C1'       -9.3000   -7.5160   -6.5720 C.3    75  DA75        0.2094
   1503  N9        -8.0310   -6.8660   -6.9790 N.ar   75  DA75       -0.2714
   1504  C8        -6.8900   -6.5430   -6.2930 C.ar   75  DA75        0.1815
   1505  N7        -5.8890   -6.1940   -7.0660 N.ar   75  DA75       -0.2193
   1506  C5        -6.4080   -6.2950   -8.3470 C.ar   75  DA75        0.1518
   1507  C6        -5.8490   -6.0590   -9.6160 C.ar   75  DA75        0.1919
   1508  N6        -4.5910   -5.6550   -9.8050 N.pl3  75  DA75       -0.1054
   1509  N1        -6.6370   -6.2550  -10.6940 N.ar   75  DA75       -0.2040
   1510  C2        -7.8990   -6.6590  -10.5020 C.ar   75  DA75        0.2016
   1511  N3        -8.5360   -6.9120   -9.3620 N.ar   75  DA75       -0.2048
   1512  C4        -7.7260   -6.7090   -8.3100 C.ar   75  DA75        0.1691
   1513  P         -8.9540  -12.2680   -5.8690 P.3    76  DA76        0.2141
   1514  OP1       -9.4870  -13.3340   -4.9960 O.3    76  DA76       -0.4373
   1515  OP2       -7.5490  -11.8120   -5.6840 O.2    76  DA76       -0.5172
   1516  O5'       -9.1930  -12.7070   -7.3850 O.3    76  DA76       -0.3114
   1517  C5'      -10.5210  -12.8340   -7.8920 C.3    76  DA76        0.1812
   1518  C4'      -10.6860  -12.0630   -9.1880 C.3    76  DA76        0.1775
   1519  O4'      -10.1800  -10.7110   -9.0400 O.3    76  DA76       -0.3326
   1520  C3'       -9.9560  -12.6130  -10.4010 C.3    76  DA76        0.1859
   1521  O3'      -10.7110  -13.6570  -11.0120 O.3    76  DA76       -0.2203
   1522  C2'       -9.8140  -11.3780  -11.2920 C.3    76  DA76        0.0894
   1523  C1'       -9.6020  -10.2680  -10.2600 C.3    76  DA76        0.2095
   1524  N9        -8.2290   -9.9390  -10.0620 N.ar   76  DA76       -0.2714
   1525  C8        -7.6030  -10.0000   -8.8440 C.ar   76  DA76        0.1815
   1526  N7        -6.3420   -9.6390   -8.8780 N.ar   76  DA76       -0.2193
   1527  C5        -6.1250   -9.3190  -10.2090 C.ar   76  DA76        0.1518
   1528  C6        -4.9870   -8.8640  -10.8990 C.ar   76  DA76        0.1919
   1529  N6        -3.8070   -8.6440  -10.3150 N.pl3  76  DA76       -0.1054
   1530  N1        -5.1060   -8.6410  -12.2250 N.ar   76  DA76       -0.2040
   1531  C2        -6.2900   -8.8610  -12.8100 C.ar   76  DA76        0.2016
   1532  N3        -7.4290   -9.2860  -12.2680 N.ar   76  DA76       -0.2048
   1533  C4        -7.2770   -9.5000  -10.9500 C.ar   76  DA76        0.1691
   1534  P         -9.9710  -15.1480  -11.5630 P.3    77  DT77        0.5411
   1535  OP1      -11.0610  -15.9560  -12.1490 O.2    77  DT77       -0.2272
   1536  OP2       -8.6240  -15.7320  -11.3760 O.2    77  DT77       -0.2272
   1537  O5'       -9.8320  -13.8250  -12.4440 O.3    77  DT77       -0.2722
   1538  C5'      -10.6020  -13.6200  -13.6110 C.3    77  DT77        0.1851
   1539  C4'       -9.6970  -13.0950  -14.7070 C.3    77  DT77        0.1776
   1540  O4'       -9.0230  -11.8860  -14.2650 O.3    77  DT77       -0.3326
   1541  C3'       -8.5630  -14.0330  -15.0840 C.3    77  DT77        0.1864
   1542  O3'       -8.9950  -15.0350  -15.9940 O.3    77  DT77       -0.2133
   1543  C2'       -7.5930  -13.0580  -15.7450 C.3    77  DT77        0.0895
   1544  C1'       -7.7300  -11.8270  -14.8450 C.3    77  DT77        0.2107
   1545  N1        -6.7430  -11.9220  -13.7420 N.ar   77  DT77       -0.2559
   1546  C2        -5.5420  -11.2650  -13.9290 C.ar   77  DT77        0.3545
   1547  O2        -5.3420  -10.4960  -14.8530 O.2    77  DT77       -0.2443
   1548  N3        -4.5760  -11.5420  -12.9920 N.ar   77  DT77       -0.1533
   1549  C4        -4.6890  -12.3910  -11.9110 C.ar   77  DT77        0.2804
   1550  O4        -3.7320  -12.5360  -11.1540 O.2    77  DT77       -0.2654
   1551  C5        -5.9650  -13.0360  -11.7860 C.ar   77  DT77        0.0534
   1552  C6        -6.9220  -12.7850  -12.6830 C.ar   77  DT77        0.0824
   1553  C7        -6.1860  -13.9800  -10.6410 C.3    77  DT77        0.0377
   1554  P         -7.9930  -16.3380  -17.0750 P.3    78  DT78        0.3939
   1555  OP1       -7.1050  -17.0870  -16.1460 O.3    78  DT78       -0.1425
   1556  OP2       -9.0490  -15.4440  -16.5240 O.3    78  DT78       -0.1496
   1557  O5'       -7.1040  -15.4750  -18.0790 O.3    78  DT78       -0.2926
   1558  C5'       -6.1510  -14.5540  -17.5730 C.3    78  DT78        0.1828
   1559  C4'       -5.1490  -14.1760  -18.6370 C.3    78  DT78        0.1754
   1560  O4'       -5.7270  -13.1730  -19.5210 O.3    78  DT78       -0.3510
   1561  C3'       -3.9230  -13.4980  -18.0490 C.3    78  DT78        0.1839
   1562  O3'       -2.9710  -14.4540  -17.6080 O.3    78  DT78       -0.2204
   1563  C2'       -3.4450  -12.6040  -19.1850 C.3    78  DT78        0.0676
   1564  C1'       -4.7780  -12.1470  -19.7790 C.3    78  DT78        0.1450
   1565  N1        -3.0780  -13.0560  -16.1940 N.2    78  DT78       -0.1608
   1566  C2        -2.2550  -12.0280  -15.7760 C.1    78  DT78        0.2395
   1567  O2        -1.8930  -11.1260  -16.5100 O.2    78  DT78       -0.2041
   1568  N3        -1.8670  -12.0930  -14.4590 N.am   78  DT78       -0.0881
   1569  C4        -2.2110  -13.0620  -13.5400 C.2    78  DT78        0.2768
   1570  O4        -1.7840  -12.9850  -12.3910 O.2    78  DT78       -0.2676
   1571  C5        -3.0670  -14.0960  -14.0510 C.2    78  DT78        0.0541
   1572  C6        -3.4590  -14.0560  -15.3270 C.2    78  DT78        0.1126
   1573  C7        -3.4970  -15.1970  -13.1280 C.3    78  DT78        0.0376
@<TRIPOS>BOND
     1  1130  1129    2
     2  1110  1109    2
     3  1117  1129    1
     4  1117  1116    1
     5  1113  1114    1
     6  1113  1112    1
     7  1114  1116    1
     8  1114  1115    1
     9  1129  1132    1
    10  1129  1131    1
    11  1133  1132    1
    12  1133  1134    1
    13  1098  1109    1
    14  1098  1097    1
    15  1116  1118    1
    16  1109  1112    1
    17  1109  1111    1
    18  1115  1119    1
    19  1134  1136    1
    20  1134  1135    1
    21  1137  1136    1
    22  1137  1151    1
    23  1152  1151    2
    24  1118  1119    1
    25  1097  1099    1
    26  1097  1095    1
    27  1099  1100    1
    28  1095  1094    1
    29  1095  1096    1
    30  1119  1120    1
    31  1136  1138    1
    32  1151  1153    1
    33  1151  1154    1
    34  1135  1139    1
    35  1094  1093    1
    36  1096  1100    1
    37  1100  1101    1
    38  1091  1090    2
    39  1138  1139    1
    40  1120  1127   ar
    41  1120  1121   ar
    42  1139  1140    1
    43  1127  1126   ar
    44  1093  1090    1
    45  1154  1155    1
    46  1172  1170    2
    47  1103  1102    2
    48  1155  1156    1
    49  1141  1140   ar
    50  1141  1142   ar
    51  1090  1078    1
    52  1090  1092    1
    53  1122  1121    2
    54  1101  1102   ar
    55  1101  1108   ar
    56  1186  1185    1
    57  1350  1349    1
    58  1121  1123   ar
    59  1078  1077    1
    60  1140  1150   ar
    61  1207  1206    1
    62    11    10   ar
    63    11    12   ar
    64  1102  1104   ar
    65  1359  1358    1
    66  1359  1363    1
    67  1079  1077    1
    68  1079  1080    1
    69    14    13    1
    70  1358  1357    1
    71  1358  1360    1
    72  1126  1128    1
    73  1126  1124   ar
    74  1171  1170    1
    75  1357  1356    1
    76  1170  1159    1
    77  1170  1173    1
    78    10     9   ar
    79  1108  1107   ar
    80  1183  1184   ar
    81  1183  1182   ar
    82  1142  1143   ar
    83     1     2    1
    84  1363  1362    1
    85  1363  1364    1
    86  1077  1075    1
    87  1083  1082    2
    88  1156  1158    1
    89  1156  1157    1
    90  1159  1158    1
    91  1185  1184   ar
    92  1185  1187   ar
    93  1349  1351   ar
    94  1349  1348   ar
    95    12    13   ar
    96    12    18   ar
    97  1123  1124   ar
    98  1362  1360    1
    99  1361  1360    1
   100  1361  1372    1
   101    13    15   ar
   102  1351  1352   ar
   103  1080  1076    1
   104  1080  1081    1
   105  1150  1143   ar
   106  1150  1149   ar
   107  1206  1205   ar
   108  1206  1208   ar
   109  1158  1160    1
   110  1104  1105   ar
   111  1124  1125    2
   112  1075  1076    1
   113  1075  1074    1
   114  1184  1190   ar
   115  1182  1181   ar
   116  1168  1169   ar
   117  1168  1166   ar
   118  1169  1162   ar
   119  1157  1161    1
   120  1356  1353    1
   121  1143  1144   ar
   122  1173  1174    1
   123  1107  1105   ar
   124     9    18   ar
   125     9     8    1
   126  1373  1372    2
   127  1205  1203   ar
   128  1082  1081   ar
   129  1082  1084   ar
   130     2     3    1
   131  1149  1147   ar
   132  1340  1341    1
   133  1340  1338    1
   134  1376  1377    1
   135  1376  1375    1
   136  1366  1365    2
   137  1187  1188   ar
   138  1208  1209   ar
   139  1348  1346   ar
   140  1364  1365   ar
   141  1364  1371   ar
   142  1105  1106    1
   143    18    17   ar
   144  1081  1088   ar
   145  1341  1337    1
   146  1341  1342    1
   147    15    16   ar
   148  1564  1560    1
   149  1564  1563    1
   150     4     3    1
   151     4     8    1
   152  1074  1073    1
   153  1372  1375    1
   154  1372  1374    1
   155  1352  1342   ar
   156  1352  1345   ar
   157  1377  1378    1
   158  1377  1379    1
   159  1365  1367   ar
   160  1339  1353    1
   161  1339  1338    1
   162  1328  1327   ar
   163  1328  1329   ar
   164  1560  1559    1
   165  1353  1354    2
   166  1353  1355    1
   167  1371  1370   ar
   168  1162  1161    1
   169  1162  1163   ar
   170  1190  1181   ar
   171  1190  1189   ar
   172  1378  1382    1
   173   888   887    2
   174  1166  1167    1
   175  1166  1165   ar
   176  1160  1161    1
   177  1084  1085   ar
   178  1181  1180    1
   179  1337  1336    1
   180  1338  1336    1
   181  1327  1325   ar
   182  1342  1343   ar
   183  1563  1561    1
   184     3     5    1
   185   891   892    1
   186   891   890    1
   187  1174  1175    1
   188  1336  1335    1
   189  1144  1145    2
   190  1144  1146   ar
   191  1203  1204    2
   192  1203  1202   ar
   193  1147  1146   ar
   194  1147  1148    1
   195     8     7    1
   196  1188  1189   ar
   197   875   887    1
   198   875   874    1
   199  1209  1202   ar
   200    16    17   ar
   201  1346  1345   ar
   202  1346  1347    2
   203  1088  1087   ar
   204  1329  1330   ar
   205   908   907    2
   206  1559  1561    1
   207  1559  1558    1
   208   892   893    1
   209   892   894    1
   210  1345  1344   ar
   211  1073  1070    1
   212  1193  1191    2
   213  1176  1175    1
   214  1176  1180    1
   215   871   872    1
   216   871   870    1
   217   872   874    1
   218   872   873    1
   219  1380  1379    1
   220  1380  1392    1
   221   895   907    1
   222   895   894    1
   223   887   890    1
   224   887   889    1
   225  1367  1368   ar
   226  1370  1368   ar
   227  1379  1381    1
   228  1382  1381    1
   229  1382  1383    1
   230  1165  1163   ar
   231  1163  1164    2
   232  1202  1201    1
   233     5     7    1
   234     5     6    1
   235  1175  1177    1
   236  1180  1179    1
   237  1085  1087   ar
   238  1085  1086    2
   239  1177  1179    1
   240  1177  1178    1
   241  1557  1558    1
   242  1557  1554    1
   243  1067  1066    1
   244  1561  1562    1
   245   874   876    1
   246  1393  1392    2
   247  1087  1089    1
   248  1325  1326    1
   249  1325  1324   ar
   250   907   909    1
   251   907   910    1
   252  1335  1334    1
   253  1343  1344   ar
   254  1368  1369    1
   255   893   897    1
   256   868   867    2
   257   894   896    1
   258   876   877    1
   259   873   877    1
   260  1330  1324   ar
   261  1330  1321   ar
   262  1390  1383   ar
   263  1390  1389   ar
   264  1383  1384   ar
   265  1392  1394    1
   266  1392  1395    1
   267  1071  1070    2
   268  1178  1191    1
   269   870   867    1
   270  1070  1056    1
   271  1070  1072    1
   272  1191  1194    1
   273  1191  1192    1
   274   877   878    1
   275     6    19    1
   276  1554  1556    1
   277  1554  1555    1
   278   911   910    1
   279   911   912    1
   280  1324  1323   ar
   281  1066  1068   ar
   282  1066  1065   ar
   283  1194  1195    1
   284   896   897    1
   285  1201  1197    1
   286  1201  1200    1
   287  1334  1331    1
   288   897   898    1
   289  1212  1210    2
   290  1319  1320    1
   291  1319  1317    1
   292   867   854    1
   293   867   869    1
   294   854   853    1
   295  1391  1389    1
   296  1389  1387   ar
   297  1556  1542    1
   298  1567  1566    2
   299  1384  1385    2
   300  1384  1386   ar
   301  1068  1069   ar
   302  1321  1320    1
   303  1321  1322   ar
   304  1197  1196    1
   305  1065  1063   ar
   306  1320  1316    1
   307  1056  1055    1
   308  1565  1566    2
   309  1565  1572    1
   310  1200  1198    1
   311    21    19    2
   312  1057  1055    1
   313  1057  1058    1
   314    19    22    1
   315    19    20    1
   316  1396  1395    1
   317  1396  1397    1
   318  1542  1541    1
   319  1198  1196    1
   320  1198  1199    1
   321  1232  1231    2
   322  1566  1568   am
   323  1543  1541    1
   324  1543  1544    1
   325   878   885   ar
   326   878   879   ar
   327   855   853    1
   328   855   856    1
   329   912   913    1
   330   912   914    1
   331  1386  1387   ar
   332  1387  1388    2
   333  1323  1322   ar
   334   880   879    2
   335  1195  1196    1
   336   853   851    1
   337    22    23    1
   338  1233  1231    1
   339   898   905   ar
   340   898   899   ar
   341  1055  1053    1
   342   905   904   ar
   343  1214  1213    1
   344  1214  1215    1
   345  1307  1306    1
   346  1572  1571    2
   347   927   926    2
   348    23    24    1
   349  1069  1062   ar
   350  1069  1059   ar
   351  1331  1318    1
   352  1331  1332    2
   353  1331  1333    1
   354  1317  1318    1
   355  1317  1315    1
   356  1210  1199    1
   357  1210  1213    1
   358  1210  1211    1
   359  1063  1064    2
   360  1063  1062   ar
   361    38    36    1
   362   851   850    1
   363   851   852    1
   364  1305  1306   ar
   365  1305  1303   ar
   366  1541  1539    1
   367  1316  1315    1
   368  1231  1218    1
   369  1231  1234    1
   370   915   926    1
   371   915   914    1
   372   885   884   ar
   373   879   881   ar
   374  1218  1217    1
   375  1058  1059    1
   376  1058  1054    1
   377   928   926    1
   378  1397  1398    1
   379  1397  1399    1
   380  1398  1402    1
   381   913   917    1
   382  1304  1303    2
   383  1547  1546    2
   384  1267  1266    1
   385  1544  1540    1
   386  1544  1545    1
   387  1288  1287    1
   388   865   864   ar
   389   865   866   ar
   390   926   929    1
   391  1539  1540    1
   392  1539  1538    1
   393   914   916    1
   394   856   852    1
   395   856   857    1
   396  1062  1061   ar
   397    25    24    1
   398    25    29    1
   399  1306  1308   ar
   400  1059  1060   ar
   401  1411  1409    1
   402  1315  1314    1
   403  1568  1569   am
   404   864   863   ar
   405   850   849    1
   406  1215  1217    1
   407  1215  1216    1
   408  1303  1302   ar
   409    36    37   ar
   410    36    34   ar
   411   906   904    1
   412   904   902   ar
   413  1053  1054    1
   414  1053  1052    1
   415   899   900    2
   416   899   901   ar
   417    37    30   ar
   418    24    26    1
   419  1571  1569    1
   420  1571  1573    1
   421  1217  1219    1
   422  1546  1545   ar
   423  1546  1548   ar
   424  1410  1409   ar
   425  1410  1403   ar
   426   925   924   ar
   427   925   918   ar
   428  1545  1552   ar
   429   884   886    1
   430   884   882   ar
   431   866   857   ar
   432   866   860   ar
   433  1409  1407   ar
   434   881   882   ar
   435  1538  1537    1
   436  1402  1403    1
   437  1402  1401    1
   438   857   858   ar
   439  1287  1286   ar
   440  1287  1289   ar
   441    34    35    2
   442    34    33   ar
   443  1569  1570    2
   444  1399  1400    1
   445  1399  1401    1
   446   917   916    1
   447   917   918    1
   448  1234  1235    1
   449  1266  1268   ar
   450  1266  1265   ar
   451  1061  1060   ar
   452    30    29    1
   453    30    31   ar
   454    29    28    1
   455  1286  1284   ar
   456   863   861   ar
   457   924   922   ar
   458  1400  1412    1
   459  1403  1404   ar
   460  1308  1309   ar
   461   929   930    1
   462  1216  1220    1
   463   849   846    1
   464   901   902   ar
   465  1052  1051    1
   466  1264  1265   ar
   467  1264  1263   ar
   468   902   903    2
   469  1302  1309   ar
   470  1302  1301    1
   471  1548  1549   ar
   472   918   919   ar
   473  1314  1313    1
   474   882   883    2
   475  1268  1269   ar
   476  1250  1248    1
   477    26    28    1
   478    26    27    1
   479  1531  1532   ar
   480  1531  1530   ar
   481    33    31   ar
   482  1235  1236    1
   483  1253  1251    2
   484  1265  1271   ar
   485   847   846    2
   486    31    32    2
   487  1552  1551   ar
   488  1219  1220    1
   489  1313  1310    1
   490   930   931    1
   491  1407  1408    2
   492  1407  1406   ar
   493  1051  1048    1
   494  1289  1290   ar
   495  1537  1534    1
   496  1414  1412    2
   497   860   861   ar
   498   860   859   ar
   499  1532  1533   ar
   500   858   859   ar
   501  1530  1528   ar
   502  1300  1301    1
   503  1300  1298    1
   504  1284  1285    2
   505  1284  1283   ar
   506   861   862    1
   507  1535  1534    2
   508  1301  1297    1
   509    27    39    1
   510  1404  1406   ar
   511  1404  1405    2
   512   846   834    1
   513   846   848    1
   514  1220  1221    1
   515  1549  1551   ar
   516  1549  1550    2
   517  1042  1041    2
   518  1263  1262   ar
   519  1412  1413    1
   520  1412  1415    1
   521   922   923    1
   522   922   921   ar
   523  1551  1553    1
   524  1043  1041   ar
   525  1043  1044   ar
   526   919   921   ar
   527   919   920    2
   528  1222  1221   ar
   529  1222  1223   ar
   530  1534  1536    2
   531  1269  1270   ar
   532   827   826    2
   533  1248  1249   ar
   534  1248  1246   ar
   535  1045  1044    1
   536  1251  1239    1
   537  1251  1252    1
   538  1251  1254    1
   539  1236  1238    1
   540  1236  1237    1
   541  1271  1262   ar
   542  1271  1270   ar
   543   938   939   ar
   544   938   937   ar
   545    55    54    1
   546  1522  1520    1
   547  1522  1523    1
   548  1239  1238    1
   549   939   940   ar
   550  1041  1040   ar
   551    41    39    2
   552  1249  1242   ar
   553  1290  1283   ar
   554  1221  1230   ar
   555  1238  1240    1
   556   834   833    1
   557   931   932    1
   558   931   933    1
   559  1283  1282    1
   560  1310  1312    2
   561  1310  1299    1
   562  1310  1311    1
   563  1298  1299    1
   564  1298  1296    1
   565  1521  1520    1
   566   830   829    1
   567   830   831    1
   568  1048  1049    2
   569  1048  1050    1
   570  1048  1037    1
   571  1044  1046   ar
   572  1533  1527   ar
   573  1533  1524   ar
   574  1528  1529    1
   575  1528  1527   ar
   576   932   936    1
   577  1262  1261    1
   578   829   826    1
   579  1297  1296    1
   580    39    40    1
   581    39    42    1
   582  1509  1510   ar
   583  1509  1507   ar
   584  1237  1241    1
   585    52    53   ar
   586    52    51   ar
   587  1223  1224   ar
   588  1247  1246    2
   589  1510  1511   ar
   590  1038  1036    1
   591  1038  1039    1
   592   826   828    1
   593   826   814    1
   594  1246  1245   ar
   595    54    53   ar
   596    54    56   ar
   597  1415  1416    1
   598  1520  1518    1
   599  1254  1255    1
   600   949   947    2
   601  1523  1524    1
   602  1523  1519    1
   603   833   831    1
   604   833   835    1
   605   933   934    1
   606   933   935    1
   607  1527  1526   ar
   608   937   936    1
   609   937   946   ar
   610    53    59   ar
   611  1040  1039    1
   612  1040  1047   ar
   613  1524  1525   ar
   614  1037  1036    1
   615  1296  1295    1
   616  1242  1241    1
   617  1242  1243   ar
   618    51    50   ar
   619   831   832    1
   620   940   941   ar
   621   940   946   ar
   622  1230  1224   ar
   623  1230  1229   ar
   624  1024  1023    1
   625   934   947    1
   626  1425  1424   ar
   627  1425  1426   ar
   628  1508  1507    1
   629  1046  1047   ar
   630  1240  1241    1
   631   942   941    1
   632    56    57   ar
   633   936   935    1
   634  1025  1023   ar
   635  1025  1026   ar
   636  1036  1034    1
   637  1282  1281    1
   638  1282  1278    1
   639  1507  1506   ar
   640  1039  1035    1
   641  1224  1225   ar
   642   947   948    1
   643   947   950    1
   644  1257  1261    1
   645  1257  1256    1
   646  1261  1260    1
   647  1416  1417    1
   648  1428  1427    1
   649  1424  1423   ar
   650  1511  1512   ar
   651   814   813    1
   652    42    43    1
   653  1274  1272    2
   654  1023  1022   ar
   655  1281  1279    1
   656   941   943   ar
   657   946   945   ar
   658  1294  1295    1
   659  1294  1291    1
   660  1518  1519    1
   661  1518  1517    1
   662  1245  1243   ar
   663    59    50   ar
   664    59    58   ar
   665  1229  1228   ar
   666    50    49    1
   667  1026  1027   ar
   668  1255  1256    1
   669  1243  1244    2
   670  1526  1525   ar
   671   835   836    1
   672    57    58   ar
   673  1293  1291    2
   674  1278  1277    1
   675  1426  1427   ar
   676  1426  1432   ar
   677  1258  1260    1
   678  1258  1256    1
   679  1258  1259    1
   680   832   836    1
   681    45    49    1
   682    45    44    1
   683    76    75    1
   684  1279  1277    1
   685  1279  1280    1
   686  1427  1429   ar
   687   963   962    1
   688  1449  1448    2
   689    43    44    1
   690  1506  1512   ar
   691  1506  1505   ar
   692   960   959   ar
   693   960   961   ar
   694  1512  1503   ar
   695  1418  1417    1
   696  1418  1422    1
   697   845   843    1
   698  1035  1034    1
   699  1225  1226    1
   700  1225  1227   ar
   701  1034  1033    1
   702   844   843   ar
   703   844   837   ar
   704  1275  1272    1
   705  1275  1276    1
   706   984   983    2
   707  1452  1450    1
   708  1291  1292    1
   709  1291  1280    1
   710    49    48    1
   711  1417  1419    1
   712   950   951    1
   713  1423  1432   ar
   714  1423  1422    1
   715  1022  1028   ar
   716  1022  1021   ar
   717   813   811    1
   718   813   815    1
   719  1272  1259    1
   720  1272  1273    1
   721   836   837    1
   722  1228  1227   ar
   723   945   944   ar
   724   943   944   ar
   725  1027  1028   ar
   726  1517  1516    1
   727   810   811    1
   728   810   809    1
   729  1277  1276    1
   730  1004  1003    2
   731   843   841   ar
   732   837   838   ar
   733    75    74   ar
   734    75    77   ar
   735    44    46    1
   736   959   958   ar
   737  1432  1431   ar
   738   807   806    2
   739   987   985    1
   740  1028  1019   ar
   741  1419  1420    1
   742  1419  1421    1
   743  1489  1488    1
   744  1516  1513    1
   745  1448  1450   ar
   746  1448  1447   ar
   747  1422  1421    1
   748   962   961   ar
   749   962   964   ar
   750  1469  1468    2
   751  1429  1430   ar
   752   961   967   ar
   753  1021  1020   ar
   754    74    72   ar
   755   811   812    1
   756    77    78   ar
   757  1032  1033    1
   758  1032  1029    1
   759  1435  1433    2
   760   809   806    1
   761   951   952    1
   762  1450  1451   ar
   763   815   816    1
   764  1505  1504   ar
   765   983   985   ar
   766   983   982   ar
   767  1503  1502    1
   768  1503  1504   ar
   769  1501  1502    1
   770  1501  1499    1
   771  1487  1488   ar
   772  1487  1485   ar
   773    48    46    1
   774  1420  1433    1
   775   806   808    1
   776   806   795    1
   777    46    47    1
   778   838   839    2
   779   838   840   ar
   780   841   840   ar
   781   841   842    2
   782   985   986   ar
   783  1502  1498    1
   784  1003  1002   ar
   785  1003  1005   ar
   786   970   968    2
   787  1431  1430   ar
   788    72    73    2
   789    72    71   ar
   790  1488  1490   ar
   791  1007  1005    1
   792    78    71   ar
   793    95    94    1
   794  1019  1020   ar
   795  1019  1018    1
   796   958   967   ar
   797   958   957    1
   798  1447  1445   ar
   799   964   965   ar
   800  1031  1029    2
   801   953   952    1
   802   953   957    1
   803   967   966   ar
   804  1468  1467   ar
   805  1468  1470   ar
   806   982   980   ar
   807  1433  1434    1
   808  1433  1436    1
   809  1486  1485    2
   810    71    70    1
   811   812   816    1
   812  1451  1444   ar
   813  1002  1000   ar
   814  1029  1030    1
   815  1029  1016    1
   816  1017  1018    1
   817  1017  1015    1
   818  1513  1515    2
   819  1513  1500    1
   820  1513  1514    1
   821   952   954    1
   822  1472  1470    1
   823  1005  1006   ar
   824  1485  1484   ar
   825   816   817    1
   826    94    93    1
   827    94    96    2
   828   824   817   ar
   829   824   823   ar
   830  1467  1465   ar
   831  1018  1014    1
   832  1499  1500    1
   833  1499  1497    1
   834   957   956    1
   835    47    60    1
   836   817   818   ar
   837   795   794    1
   838   954   955    1
   839   954   956    1
   840    93    91    2
   841   825   823    1
   842   986   979   ar
   843  1470  1471   ar
   844   823   821   ar
   845  1498  1497    1
   846   968   955    1
   847   968   969    1
   848   968   971    1
   849   965   966   ar
   850  1490  1491   ar
   851  1445  1444   ar
   852  1445  1446    2
   853  1436  1437    1
   854  1015  1016    1
   855  1015  1013    1
   856   818   819    2
   857   818   820   ar
   858    70    66    1
   859    70    69    1
   860    66    65    1
   861  1444  1443    1
   862    96    97    1
   863    62    60    2
   864   821   820   ar
   865   821   822    2
   866   980   979   ar
   867   980   981    2
   868  1000  1001    2
   869  1000   999   ar
   870  1006   999   ar
   871  1497  1496    1
   872    91    92    1
   873    91    90    1
   874  1010  1008    2
   875  1484  1491   ar
   876  1484  1483    1
   877    63    60    1
   878    63    64    1
   879   979   978    1
   880    92  1437    1
   881   794   796    1
   882   794   792    1
   883   971   972    1
   884  1014  1013    1
   885    60    61    1
   886  1465  1466    2
   887  1465  1464   ar
   888   788   787    2
   889    97    90    1
   890   990   988    2
   891  1471  1464   ar
   892   999   998    1
   893   116   115   ar
   894   116   117   ar
   895  1437  1438    1
   896   115   113   ar
   897  1011  1008    1
   898  1011  1012    1
   899    90    89    1
   900  1013  1012    1
   901  1439  1443    1
   902  1439  1438    1
   903    64    65    1
   904  1455  1453    2
   905   796   797    1
   906  1443  1442    1
   907    65    67    1
   908    69    67    1
   909  1483  1482    1
   910  1483  1479    1
   911   790   791    1
   912   790   787    1
   913   117   118   ar
   914  1464  1463    1
   915  1008  1009    1
   916  1008   996    1
   917   791   792    1
   918  1495  1496    1
   919  1495  1492    1
   920   792   793    1
   921  1482  1480    1
   922   113   114    1
   923   113   112   ar
   924  1438  1440    1
   925   787   789    1
   926   787   773    1
   927    67    68    1
   928  1440  1442    1
   929  1440  1441    1
   930   978   977    1
   931   978   974    1
   932   972   973    1
   933    89    85    1
   934    89    88    1
   935   975   977    1
   936   975   973    1
   937   975   976    1
   938   974   973    1
   939   995   997    1
   940   995   996    1
   941   995   993    1
   942   118   112   ar
   943   118   109   ar
   944   998   997    1
   945   998   994    1
   946    85    84    1
   947   112   111   ar
   948   988   976    1
   949   988   989    1
   950   988   991    1
   951   992   993    1
   952   992   991    1
   953  1479  1478    1
   954   797   793    1
   955   797   798    1
   956  1494  1492    2
   957  1453  1441    1
   958  1453  1456    1
   959  1453  1454    1
   960   138   137    1
   961   994   993    1
   962  1480  1481    1
   963  1480  1478    1
   964   109   108    1
   965   109   110   ar
   966   798   805   ar
   967   798   799   ar
   968   805   804   ar
   969  1463  1459    1
   970  1463  1462    1
   971  1456  1457    1
   972  1492  1481    1
   973  1492  1493    1
   974   800   799    2
   975   799   801   ar
   976   108   104    1
   977   108   107    1
   978   111   110   ar
   979   804   802   ar
   980    68    79    1
   981   773   772    1
   982   801   802   ar
   983   137   139   ar
   984   137   136   ar
   985   802   803    1
   986    88    86    1
   987   139   140   ar
   988  1459  1458    1
   989  1462  1460    1
   990    82    83    1
   991    82    79    1
   992  1478  1477    1
   993  1475  1473    2
   994    84    83    1
   995    84    86    1
   996   136   134   ar
   997    81    79    2
   998   104   103    1
   999  1476  1477    1
  1000  1476  1473    1
  1001   107   105    1
  1002  1460  1458    1
  1003  1460  1461    1
  1004   140   130   ar
  1005   140   133   ar
  1006    79    80    1
  1007    86    87    1
  1008   129   130    1
  1009   129   125    1
  1010   129   128    1
  1011   130   131   ar
  1012  1457  1458    1
  1013   134   133   ar
  1014   134   135    2
  1015   125   124    1
  1016   772   774    1
  1017   772   770    1
  1018   133   132   ar
  1019  1473  1461    1
  1020  1473  1474    1
  1021   774   775    1
  1022   131   132   ar
  1023   100    87    1
  1024   100    98    1
  1025   103   105    1
  1026   103   102    1
  1027   128   126    1
  1028   105   106    1
  1029   124   123    1
  1030   124   126    1
  1031   770   769    1
  1032   770   771    1
  1033   766   765    2
  1034   769   768    1
  1035   768   765    1
  1036   147   151    1
  1037   147   146    1
  1038   154   153    2
  1039   106   119    1
  1040   102   101    1
  1041   123   122    1
  1042   775   776    1
  1043   775   771    1
  1044   784   783    1
  1045   126   127    1
  1046   151   152    1
  1047   151   150    1
  1048   785   783   ar
  1049   785   786   ar
  1050    98   101    1
  1051    98    99    1
  1052   153   152   ar
  1053   153   155   ar
  1054   783   782   ar
  1055   152   159   ar
  1056   776   786   ar
  1057   776   777   ar
  1058   786   779   ar
  1059   765   767    1
  1060   765   752    1
  1061   122   119    1
  1062   155   156   ar
  1063   782   780   ar
  1064   777   778   ar
  1065   779   780   ar
  1066   779   778   ar
  1067   780   781    2
  1068   159   158   ar
  1069   156   158   ar
  1070   156   157    1
  1071   146   145    1
  1072   146   148    1
  1073   127   141    1
  1074   145   144    1
  1075   119   121    2
  1076   119   120    1
  1077   150   148    1
  1078   144   141    1
  1079   752   751    1
  1080   148   149    1
  1081   141   142    2
  1082   141   143    1
  1083   751   753    1
  1084   751   749    1
  1085   166   170    1
  1086   166   165    1
  1087   149   160    1
  1088   753   754    1
  1089   170   171    1
  1090   170   169    1
  1091   173   172    2
  1092   171   172   ar
  1093   171   178   ar
  1094   164   165    1
  1095   164   163    1
  1096   172   174   ar
  1097   178   177   ar
  1098   165   167    1
  1099   174   175   ar
  1100   177   175   ar
  1101   177   179    1
  1102   175   176    2
  1103   747   748    1
  1104   747   744    1
  1105   762   761   ar
  1106   762   763   ar
  1107   761   759   ar
  1108   749   748    1
  1109   749   750    1
  1110   763   764   ar
  1111   759   760    1
  1112   759   758   ar
  1113   746   744    2
  1114   764   758   ar
  1115   764   755   ar
  1116   160   163    1
  1117   160   161    2
  1118   160   162    1
  1119   758   757   ar
  1120   745   744    1
  1121   754   755    1
  1122   754   750    1
  1123   755   756   ar
  1124   757   756   ar
  1125   744   733    1
  1126   169   167    1
  1127   167   168    1
  1128   605   604    2
  1129   733   732    1
  1130   168   180    1
  1131   625   624    2
  1132   608   607    1
  1133   608   609    1
  1134   604   593    1
  1135   604   607    1
  1136   604   606    1
  1137   593   592    1
  1138   732   734    1
  1139   732   730    1
  1140   586   585    2
  1141   181   180    2
  1142   734   735    1
  1143   180   183    1
  1144   180   182    1
  1145   624   612    1
  1146   624   626    1
  1147   624   627    1
  1148   589   590    1
  1149   589   588    1
  1150   741   740    1
  1151   612   611    1
  1152   590   592    1
  1153   590   591    1
  1154   184   183    1
  1155   184   185    1
  1156   609   611    1
  1157   609   610    1
  1158   726   725    2
  1159   740   742   ar
  1160   740   739   ar
  1161   742   743   ar
  1162   186   185    1
  1163   186   190    1
  1164   739   737   ar
  1165   727   725    1
  1166   592   594    1
  1167   728   729    1
  1168   728   725    1
  1169   729   730    1
  1170   730   731    1
  1171   743   736   ar
  1172   199   197    1
  1173   737   736   ar
  1174   737   738    2
  1175   736   735    1
  1176   725   714    1
  1177   198   197   ar
  1178   198   191   ar
  1179   611   613    1
  1180   185   187    1
  1181   588   585    1
  1182   585   574    1
  1183   585   587    1
  1184   735   731    1
  1185   197   195   ar
  1186   627   628    1
  1187   574   573    1
  1188   594   595    1
  1189   191   190    1
  1190   191   192   ar
  1191   610   614    1
  1192   190   189    1
  1193   591   595    1
  1194   195   196    2
  1195   195   194   ar
  1196   192   194   ar
  1197   192   193    2
  1198   595   596    1
  1199   366   367    1
  1200   366   365    1
  1201   613   614    1
  1202   363   362    2
  1203   628   629    1
  1204   714   713    1
  1205   187   189    1
  1206   187   188    1
  1207   573   575    1
  1208   573   571    1
  1209   367   368    1
  1210   367   369    1
  1211   614   615    1
  1212   575   576    1
  1213   384   383    2
  1214   370   369    1
  1215   370   383    1
  1216   571   570    1
  1217   571   572    1
  1218   350   362    1
  1219   350   349    1
  1220   722   721    1
  1221   701   700    1
  1222   622   615   ar
  1223   622   621   ar
  1224   368   372    1
  1225   629   630    1
  1226   629   631    1
  1227   713   715    1
  1228   713   711    1
  1229   188   200    1
  1230   362   365    1
  1231   362   364    1
  1232   646   644    2
  1233   369   371    1
  1234   721   720   ar
  1235   721   723   ar
  1236   720   718   ar
  1237   596   603   ar
  1238   596   597   ar
  1239   570   569    1
  1240   383   385    1
  1241   383   386    1
  1242   623   621    1
  1243   715   716    1
  1244   615   616   ar
  1245   632   631    1
  1246   632   644    1
  1247   603   602   ar
  1248   576   572    1
  1249   576   577    1
  1250   347   349    1
  1251   347   346    1
  1252   347   348    1
  1253   371   372    1
  1254   645   644    1
  1255   723   724   ar
  1256   718   719    2
  1257   718   717   ar
  1258   387   386    1
  1259   387   388    1
  1260   351   349    1
  1261   351   352    1
  1262   579   578    2
  1263   372   373    1
  1264   621   619   ar
  1265   700   702   ar
  1266   700   699   ar
  1267   630   634    1
  1268   631   633    1
  1269   346   345    1
  1270   569   566    1
  1271   644   647    1
  1272   598   597    2
  1273   724   717   ar
  1274   717   716    1
  1275   702   703   ar
  1276   708   706    2
  1277   597   599   ar
  1278   348   352    1
  1279   711   710    1
  1280   711   712    1
  1281   352   353    1
  1282   709   710    1
  1283   709   706    1
  1284   716   712    1
  1285   202   200    2
  1286   707   706    1
  1287   698   699   ar
  1288   698   697   ar
  1289   699   705   ar
  1290   388   389    1
  1291   388   390    1
  1292   577   578   ar
  1293   577   584   ar
  1294   602   600   ar
  1295   616   617    2
  1296   616   618   ar
  1297   578   580   ar
  1298   200   203    1
  1299   200   201    1
  1300   706   693    1
  1301   203   204    1
  1302   643   641    1
  1303   213   212   ar
  1304   213   214   ar
  1305   703   704   ar
  1306   642   641   ar
  1307   642   635   ar
  1308   389   393    1
  1309   681   680    2
  1310   343   342    2
  1311   212   211   ar
  1312   634   633    1
  1313   634   635    1
  1314   619   618   ar
  1315   619   620    2
  1316   216   215    1
  1317   373   374   ar
  1318   373   382   ar
  1319   345   342    1
  1320   355   354    2
  1321   697   696   ar
  1322   684   682    1
  1323   705   704   ar
  1324   705   696   ar
  1325   204   205    1
  1326   599   600   ar
  1327   647   648    1
  1328   566   553    1
  1329   566   567    2
  1330   566   568    1
  1331   391   390    1
  1332   391   404    1
  1333   667   665    2
  1334   641   639   ar
  1335   553   552    1
  1336   335   334    2
  1337   635   636   ar
  1338   584   583   ar
  1339   214   215   ar
  1340   214   220   ar
  1341   600   601    1
  1342   554   552    1
  1343   554   555    1
  1344   390   392    1
  1345   353   354   ar
  1346   353   360   ar
  1347   215   217   ar
  1348   374   375   ar
  1349   206   205    1
  1350   206   210    1
  1351   331   329    1
  1352   331   332    1
  1353   580   581   ar
  1354   342   330    1
  1355   342   344    1
  1356   211   220   ar
  1357   211   210    1
  1358   405   404    2
  1359   696   695    1
  1360   330   329    1
  1361   680   682   ar
  1362   680   679   ar
  1363   693   692    1
  1364   692   694    1
  1365   692   690    1
  1366   657   656   ar
  1367   657   658   ar
  1368   354   356   ar
  1369   687   685    2
  1370   648   649    1
  1371   564   563   ar
  1372   564   565   ar
  1373   381   382   ar
  1374   381   380   ar
  1375   220   219   ar
  1376   382   376   ar
  1377   682   683   ar
  1378   563   562   ar
  1379   393   392    1
  1380   393   394    1
  1381   694   695    1
  1382   552   550    1
  1383   205   207    1
  1384   656   655   ar
  1385   404   407    1
  1386   404   406    1
  1387   217   218   ar
  1388   660   659    1
  1389   688   685    1
  1390   688   689    1
  1391   210   209    1
  1392   329   327    1
  1393   360   359   ar
  1394   686   685    1
  1395   334   333   ar
  1396   334   336   ar
  1397   583   581   ar
  1398   555   556    1
  1399   555   551    1
  1400   639   638   ar
  1401   639   640    2
  1402   665   666    1
  1403   665   668    1
  1404   665   652    1
  1405   636   638   ar
  1406   636   637    2
  1407   332   333    1
  1408   332   328    1
  1409   685   673    1
  1410   679   677   ar
  1411   581   582    1
  1412   395   394   ar
  1413   395   396   ar
  1414   695   691    1
  1415   219   218   ar
  1416   375   376   ar
  1417   689   690    1
  1418   407   408    1
  1419   550   551    1
  1420   550   549    1
  1421   658   659   ar
  1422   658   664   ar
  1423   394   403   ar
  1424   690   691    1
  1425   565   556   ar
  1426   565   559   ar
  1427   683   676   ar
  1428   237   236    2
  1429   380   379   ar
  1430   376   377   ar
  1431   240   238    1
  1432   562   560   ar
  1433   659   661   ar
  1434   333   340   ar
  1435   356   357   ar
  1436   207   209    1
  1437   207   208    1
  1438   336   337   ar
  1439   556   557   ar
  1440   649   651    1
  1441   649   650    1
  1442   651   652    1
  1443   651   653    1
  1444   668   669    1
  1445   327   328    1
  1446   327   326    1
  1447   655   664   ar
  1448   655   654    1
  1449   650   654    1
  1450   396   397   ar
  1451   359   357   ar
  1452   359   361    1
  1453   677   676   ar
  1454   677   678    2
  1455   676   675    1
  1456   236   238   ar
  1457   236   235   ar
  1458   664   663   ar
  1459   549   548    1
  1460   238   239   ar
  1461   673   672    1
  1462   319   318   ar
  1463   319   320   ar
  1464   408   409    1
  1465   223   221    2
  1466   357   358    2
  1467   672   674    1
  1468   672   670    1
  1469   559   560   ar
  1470   559   558   ar
  1471   208   221    1
  1472   654   653    1
  1473   403   397   ar
  1474   403   402   ar
  1475   560   561    1
  1476   379   377   ar
  1477   377   378    1
  1478   661   662   ar
  1479   318   316   ar
  1480   340   339   ar
  1481   557   558   ar
  1482   337   338    2
  1483   337   339   ar
  1484   423   421    1
  1485   410   409    1
  1486   410   414    1
  1487   397   398   ar
  1488   326   325    1
  1489   674   675    1
  1490   669   670    1
  1491   409   411    1
  1492   320   321   ar
  1493   235   233   ar
  1494   257   256    2
  1495   297   298   ar
  1496   297   295   ar
  1497   402   401   ar
  1498   548   545    1
  1499   538   537    2
  1500   239   232   ar
  1501   675   671    1
  1502   663   662   ar
  1503   670   671    1
  1504   221   222    1
  1505   221   224    1
  1506   298   299   ar
  1507   339   341    1
  1508   296   295    1
  1509   422   421   ar
  1510   422   415   ar
  1511   325   322    1
  1512   421   419   ar
  1513   316   317    1
  1514   316   315   ar
  1515   295   294   ar
  1516   233   232   ar
  1517   233   234    2
  1518   414   415    1
  1519   414   413    1
  1520   277   276    1
  1521   232   231    1
  1522   398   399    1
  1523   398   400   ar
  1524   256   255   ar
  1525   256   258   ar
  1526   321   315   ar
  1527   321   312   ar
  1528   546   545    2
  1529   534   532    1
  1530   534   535    1
  1531   537   539   ar
  1532   537   536   ar
  1533   401   400   ar
  1534   224   225    1
  1535   411   412    1
  1536   411   413    1
  1537   533   545    1
  1538   533   532    1
  1539   299   300   ar
  1540   255   253   ar
  1541   545   547    1
  1542   415   416   ar
  1543   539   540   ar
  1544   260   258    1
  1545   227   231    1
  1546   227   226    1
  1547   315   314   ar
  1548   412   424    1
  1549   324   322    2
  1550   275   276   ar
  1551   275   273   ar
  1552   419   420    2
  1553   419   418   ar
  1554   231   230    1
  1555   276   278   ar
  1556   532   530    1
  1557   258   259   ar
  1558   322   309    1
  1559   322   323    1
  1560   294   300   ar
  1561   294   293   ar
  1562   225   226    1
  1563   312   311    1
  1564   312   313   ar
  1565   536   535    1
  1566   536   543   ar
  1567   300   291   ar
  1568   535   531    1
  1569   311   307    1
  1570   311   310    1
  1571   425   424    2
  1572   424   426    1
  1573   424   427    1
  1574   253   254    2
  1575   253   252   ar
  1576   309   308    1
  1577   416   418   ar
  1578   416   417    2
  1579   226   228    1
  1580   540   541    2
  1581   540   542   ar
  1582   274   273    2
  1583   273   272   ar
  1584   307   306    1
  1585   314   313   ar
  1586   259   252   ar
  1587   278   279   ar
  1588   310   308    1
  1589   530   531    1
  1590   530   529    1
  1591   228   230    1
  1592   228   229    1
  1593   293   292   ar
  1594   252   251    1
  1595   543   542   ar
  1596   440   439    1
  1597   291   292   ar
  1598   291   290    1
  1599   308   306    1
  1600   441   439   ar
  1601   441   442   ar
  1602   542   544    1
  1603   306   305    1
  1604   427   428    1
  1605   243   241    2
  1606   272   279   ar
  1607   272   271    1
  1608   439   438   ar
  1609   290   289    1
  1610   290   286    1
  1611   529   528    1
  1612   518   517    2
  1613   442   435   ar
  1614   519   517   ar
  1615   519   520   ar
  1616   521   520    2
  1617   229   241    1
  1618   289   287    1
  1619   251   247    1
  1620   251   250    1
  1621   500   499    1
  1622   517   516   ar
  1623   501   499   ar
  1624   501   502   ar
  1625   520   522   ar
  1626   241   244    1
  1627   241   242    1
  1628   271   270    1
  1629   271   267    1
  1630   247   246    1
  1631   428   429    1
  1632   438   436   ar
  1633   305   304    1
  1634   430   429    1
  1635   430   434    1
  1636   286   285    1
  1637   527   525    2
  1638   435   436   ar
  1639   435   434    1
  1640   499   498   ar
  1641   244   245    1
  1642   528   525    1
  1643   304   301    1
  1644   502   503   ar
  1645   250   248    1
  1646   270   268    1
  1647   436   437    2
  1648   267   266    1
  1649   287   285    1
  1650   287   288    1
  1651   429   431    1
  1652   516   515    1
  1653   516   523   ar
  1654   434   433    1
  1655   514   515    1
  1656   514   512    1
  1657   459   458    2
  1658   522   523   ar
  1659   522   524    1
  1660   525   526    1
  1661   525   513    1
  1662   248   246    1
  1663   248   249    1
  1664   246   245    1
  1665   285   284    1
  1666   515   511    1
  1667   288   301    1
  1668   263   261    2
  1669   498   504   ar
  1670   498   497   ar
  1671   503   504   ar
  1672   268   266    1
  1673   268   269    1
  1674   458   460   ar
  1675   458   457   ar
  1676   301   303    2
  1677   301   302    1
  1678   431   433    1
  1679   431   432    1
  1680   266   265    1
  1681   512   513    1
  1682   512   510    1
  1683   264   261    1
  1684   264   265    1
  1685   456   457   ar
  1686   456   455   ar
  1687   504   495   ar
  1688   460   461   ar
  1689   249   261    1
  1690   457   464   ar
  1691   497   496   ar
  1692   284   283    1
  1693   283   280    1
  1694   261   262    1
  1695   511   510    1
  1696   269   280    1
  1697   455   454   ar
  1698   432   443    1
  1699   282   280    2
  1700   461   462    1
  1701   461   463   ar
  1702   445   443    2
  1703   510   509    1
  1704   464   454   ar
  1705   464   463   ar
  1706   280   281    1
  1707   495   496   ar
  1708   495   494    1
  1709   454   453    1
  1710   443   446    1
  1711   443   444    1
  1712   508   509    1
  1713   508   505    1
  1714   493   494    1
  1715   493   491    1
  1716   446   447    1
  1717   494   490    1
  1718   453   449    1
  1719   453   452    1
  1720   449   448    1
  1721   507   505    2
  1722   491   492    1
  1723   491   489    1
  1724   447   448    1
  1725   505   492    1
  1726   505   506    1
  1727   490   489    1
  1728   448   450    1
  1729   452   450    1
  1730   489   488    1
  1731   450   451    1
  1732   488   487    1
  1733   486   484    2
  1734   487   484    1
  1735   451   465    1
  1736   469   470    1
  1737   469   468    1
  1738   473   484    1
  1739   473   472    1
  1740   467   465    2
  1741   484   485    1
  1742   470   472    1
  1743   470   471    1
  1744   465   468    1
  1745   465   466    1
  1746   472   474    1
  1747   471   475    1
  1748   474   475    1
  1749   475   476    1
  1750   483   476   ar
  1751   483   482   ar
  1752   476   477   ar
  1753   482   480   ar
  1754   477   478    2
  1755   477   479   ar
  1756   480   479   ar
  1757   480   481    1
